version 2
run _10on-1-20160818-17:48:05-28534
attr configname _10on
attr datetime 20160818-17:48:05
attr experiment _10on
attr inifile omnetpp.ini
attr iterationvars ""
attr iterationvars2 $repetition=1
attr measurement ""
attr network University
attr processid 28534
attr repetition 1
attr replication #1
attr resultdir results
attr runnumber 1
attr seedset 1

scalar University.remoteR.networkLayer.arp 	initiatedARPResolution:count 	502
attr title  "ARP initiated resolutions, count"
scalar University.remoteR.networkLayer.arp 	sentReply:count 	56
attr title  "ARP replies sent, count"
scalar University.remoteR.networkLayer.arp 	sentReq:count 	513
attr title  "ARP request sent, count"
scalar University.remoteR.networkLayer.arp 	failedARPResolution:count 	0
attr title  "ARP failed resolutions, count"
scalar University.remoteR.networkLayer.arp 	completedARPResolution:count 	557
attr title  "ARP completed resolutions, count"
scalar University.remoteR.lo0.lo 	rcvdPkFromHL:count 	0
attr interpolationmode  none
attr source  packetReceivedFromUpper
attr title  "packets received from higher layer, count"
scalar University.remoteR.lo0.lo 	rcvdPkFromHL:sum(packetBytes) 	0
attr interpolationmode  none
attr source  packetReceivedFromUpper
attr title  "packets received from higher layer, sum(packetBytes)"
scalar University.remoteR.lo0.lo 	passedUpPk:count 	0
attr interpolationmode  none
attr source  packetSentToUpper
attr title  "packets passed to higher layer, count"
scalar University.remoteR.lo0.lo 	passedUpPk:sum(packetBytes) 	0
attr interpolationmode  none
attr source  packetSentToUpper
attr title  "packets passed to higher layer, sum(packetBytes)"
scalar University.remoteR.lo0.lo 	droppedPkBitError:count 	0
attr interpolationmode  none
attr source  dropPkBitError
attr title  "packets dropped/bit error, count"
scalar University.remoteR.lo0.lo 	droppedPkBitError:sum(packetBytes) 	0
attr interpolationmode  none
attr source  dropPkBitError
attr title  "packets dropped/bit error, sum(packetBytes)"
scalar University.remoteR.eth[0].mac 	"simulated time" 	5400.0009852062
scalar University.remoteR.eth[0].mac 	full-duplex 	1
scalar University.remoteR.eth[0].mac 	"frames/sec sent" 	283.98346670698
scalar University.remoteR.eth[0].mac 	"frames/sec rcvd" 	283.34180015739
scalar University.remoteR.eth[0].mac 	"bits/sec sent" 	2906545.711195
scalar University.remoteR.eth[0].mac 	"bits/sec rcvd" 	914364.32206714
scalar University.remoteR.eth[0].mac 	"rx channel idle (%)" 	99.067501802723
scalar University.remoteR.eth[0].mac 	"rx channel utilization (%)" 	0.93249819727722
scalar University.remoteR.eth[0].mac 	rxPkFromHL:count 	1533511
attr interpolationmode  none
attr source  rxPkFromHL
attr title  "packet bytes from higher layer, count"
scalar University.remoteR.eth[0].mac 	rxPkFromHL:sum(packetBytes) 	1961918713
attr interpolationmode  none
attr source  rxPkFromHL
attr title  "packet bytes from higher layer, sum(packetBytes)"
scalar University.remoteR.eth[0].mac 	rxPausePkUnits:count 	0
attr interpolationmode  none
attr title  "pause units received, count"
scalar University.remoteR.eth[0].mac 	rxPausePkUnits:sum 	0
attr interpolationmode  none
attr title  "pause units received, sum"
scalar University.remoteR.eth[0].mac 	txPausePkUnits:count 	0
attr interpolationmode  none
attr title  "pause units sent, count"
scalar University.remoteR.eth[0].mac 	txPausePkUnits:sum 	0
attr interpolationmode  none
attr title  "pause units sent, sum"
scalar University.remoteR.eth[0].mac 	txPk:count 	1533511
attr interpolationmode  none
attr source  txPk
attr title  "packets transmitted, count"
scalar University.remoteR.eth[0].mac 	txPk:sum(packetBytes) 	1961918713
attr interpolationmode  none
attr source  txPk
attr title  "packets transmitted, sum(packetBytes)"
scalar University.remoteR.eth[0].mac 	droppedPkNotForUs:count 	0
attr interpolationmode  none
attr source  dropPkNotForUs
attr title  "packets dropped/not for us, count"
scalar University.remoteR.eth[0].mac 	droppedPkNotForUs:sum(packetBytes) 	0
attr interpolationmode  none
attr source  dropPkNotForUs
attr title  "packets dropped/not for us, sum(packetBytes)"
scalar University.remoteR.eth[0].mac 	passedUpPk:count 	1530046
attr interpolationmode  none
attr source  packetSentToUpper
attr title  "packets passed to higher layer, count"
scalar University.remoteR.eth[0].mac 	passedUpPk:sum(packetBytes) 	617196030
attr interpolationmode  none
attr source  packetSentToUpper
attr title  "packets passed to higher layer, sum(packetBytes)"
scalar University.remoteR.eth[0].mac 	droppedPkBitError:count 	0
attr interpolationmode  none
attr source  dropPkBitError
attr title  "packets dropped/bit error, count"
scalar University.remoteR.eth[0].mac 	droppedPkBitError:sum(packetBytes) 	0
attr interpolationmode  none
attr source  dropPkBitError
attr title  "packets dropped/bit error, sum(packetBytes)"
scalar University.remoteR.eth[0].mac 	droppedPkIfaceDown:count 	0
attr interpolationmode  none
attr source  dropPkIfaceDown
attr title  "packets dropped/interface down, count"
scalar University.remoteR.eth[0].mac 	droppedPkIfaceDown:sum(packetBytes) 	0
attr interpolationmode  none
attr source  dropPkIfaceDown
attr title  "packets dropped/interface down, sum(packetBytes)"
scalar University.remoteR.eth[0].mac 	rxPkOk:count 	1530046
attr interpolationmode  none
attr source  rxPkOk
attr title  "packets received OK, count"
scalar University.remoteR.eth[0].mac 	rxPkOk:sum(packetBytes) 	617196030
attr interpolationmode  none
attr source  rxPkOk
attr title  "packets received OK, sum(packetBytes)"
scalar University.remoteR.eth[0].encap 	pauseSent:count 	0
attr title  "pause sent, count"
scalar University.remoteR.eth[0].encap 	pauseSent:sum 	0
attr title  "pause sent, sum"
scalar University.remoteR.eth[0].encap 	decapPk:count 	1530046
attr interpolationmode  none
attr source  decapPk
attr title  "packets decapsulated, count"
scalar University.remoteR.eth[0].encap 	decapPk:sum(packetBytes) 	589337254
attr interpolationmode  none
attr source  decapPk
attr title  "packets decapsulated, sum(packetBytes)"
scalar University.remoteR.eth[0].encap 	encapPk:count 	1533511
attr interpolationmode  none
attr source  encapPk
attr title  "packets encapsulated, count"
scalar University.remoteR.eth[0].encap 	encapPk:sum(packetBytes) 	1932863246
attr interpolationmode  none
attr source  encapPk
attr title  "packets encapsulated, sum(packetBytes)"
scalar University.remoteR.eth[1].mac 	"simulated time" 	5400.0009852062
scalar University.remoteR.eth[1].mac 	full-duplex 	1
scalar University.remoteR.eth[1].mac 	"frames/sec sent" 	0.0085185169643526
scalar University.remoteR.eth[1].mac 	"frames/sec rcvd" 	175.00830140384
scalar University.remoteR.eth[1].mac 	"bits/sec sent" 	4.3614806857485
scalar University.remoteR.eth[1].mac 	"bits/sec rcvd" 	2102803.8830194
scalar University.remoteR.eth[1].mac 	"rx channel idle (%)" 	97.885995585691
scalar University.remoteR.eth[1].mac 	"rx channel utilization (%)" 	2.1140044143092
scalar University.remoteR.eth[1].mac 	rxPkFromHL:count 	46
attr interpolationmode  none
attr source  rxPkFromHL
attr title  "packet bytes from higher layer, count"
scalar University.remoteR.eth[1].mac 	rxPkFromHL:sum(packetBytes) 	2944
attr interpolationmode  none
attr source  rxPkFromHL
attr title  "packet bytes from higher layer, sum(packetBytes)"
scalar University.remoteR.eth[1].mac 	rxPausePkUnits:count 	0
attr interpolationmode  none
attr title  "pause units received, count"
scalar University.remoteR.eth[1].mac 	rxPausePkUnits:sum 	0
attr interpolationmode  none
attr title  "pause units received, sum"
scalar University.remoteR.eth[1].mac 	txPausePkUnits:count 	0
attr interpolationmode  none
attr title  "pause units sent, count"
scalar University.remoteR.eth[1].mac 	txPausePkUnits:sum 	0
attr interpolationmode  none
attr title  "pause units sent, sum"
scalar University.remoteR.eth[1].mac 	txPk:count 	46
attr interpolationmode  none
attr source  txPk
attr title  "packets transmitted, count"
scalar University.remoteR.eth[1].mac 	txPk:sum(packetBytes) 	2944
attr interpolationmode  none
attr source  txPk
attr title  "packets transmitted, sum(packetBytes)"
scalar University.remoteR.eth[1].mac 	droppedPkNotForUs:count 	0
attr interpolationmode  none
attr source  dropPkNotForUs
attr title  "packets dropped/not for us, count"
scalar University.remoteR.eth[1].mac 	droppedPkNotForUs:sum(packetBytes) 	0
attr interpolationmode  none
attr source  dropPkNotForUs
attr title  "packets dropped/not for us, sum(packetBytes)"
scalar University.remoteR.eth[1].mac 	passedUpPk:count 	945045
attr interpolationmode  none
attr source  packetSentToUpper
attr title  "packets passed to higher layer, count"
scalar University.remoteR.eth[1].mac 	passedUpPk:sum(packetBytes) 	1419392880
attr interpolationmode  none
attr source  packetSentToUpper
attr title  "packets passed to higher layer, sum(packetBytes)"
scalar University.remoteR.eth[1].mac 	droppedPkBitError:count 	0
attr interpolationmode  none
attr source  dropPkBitError
attr title  "packets dropped/bit error, count"
scalar University.remoteR.eth[1].mac 	droppedPkBitError:sum(packetBytes) 	0
attr interpolationmode  none
attr source  dropPkBitError
attr title  "packets dropped/bit error, sum(packetBytes)"
scalar University.remoteR.eth[1].mac 	droppedPkIfaceDown:count 	0
attr interpolationmode  none
attr source  dropPkIfaceDown
attr title  "packets dropped/interface down, count"
scalar University.remoteR.eth[1].mac 	droppedPkIfaceDown:sum(packetBytes) 	0
attr interpolationmode  none
attr source  dropPkIfaceDown
attr title  "packets dropped/interface down, sum(packetBytes)"
scalar University.remoteR.eth[1].mac 	rxPkOk:count 	945045
attr interpolationmode  none
attr source  rxPkOk
attr title  "packets received OK, count"
scalar University.remoteR.eth[1].mac 	rxPkOk:sum(packetBytes) 	1419392880
attr interpolationmode  none
attr source  rxPkOk
attr title  "packets received OK, sum(packetBytes)"
scalar University.remoteR.eth[1].encap 	pauseSent:count 	0
attr title  "pause sent, count"
scalar University.remoteR.eth[1].encap 	pauseSent:sum 	0
attr title  "pause sent, sum"
scalar University.remoteR.eth[1].encap 	decapPk:count 	945045
attr interpolationmode  none
attr source  decapPk
attr title  "packets decapsulated, count"
scalar University.remoteR.eth[1].encap 	decapPk:sum(packetBytes) 	1402381260
attr interpolationmode  none
attr source  decapPk
attr title  "packets decapsulated, sum(packetBytes)"
scalar University.remoteR.eth[1].encap 	encapPk:count 	46
attr interpolationmode  none
attr source  encapPk
attr title  "packets encapsulated, count"
scalar University.remoteR.eth[1].encap 	encapPk:sum(packetBytes) 	1288
attr interpolationmode  none
attr source  encapPk
attr title  "packets encapsulated, sum(packetBytes)"
statistic University.remoteR.ppp[0].queue 	queueingTime:histogram
field count 2474530
field mean 0.0020159862650419
field stddev 0.0034918999378109
field sum 4988.618492434
field sqrsum 40.229822097101
field min 0
field max 0.067183835629
attr interpolationmode  none
attr title  "queueing time, histogram"
bin	-INF	0
bin	-0.002649360001	0
bin	-0.0022961120008667	0
bin	-0.0019428640007333	0
bin	-0.0015896160006	0
bin	-0.0012363680004667	0
bin	-0.00088312000033333	0
bin	-0.0005298720002	0
bin	-0.00017662400006667	1243254
bin	0.00017662400006667	30733
bin	0.0005298720002	149313
bin	0.00088312000033333	26225
bin	0.0012363680004667	16448
bin	0.0015896160006	144358
bin	0.0019428640007333	17366
bin	0.0022961120008667	134366
bin	0.002649360001	24227
bin	0.0030026080011333	20434
bin	0.0033558560012667	145529
bin	0.0037091040014	13886
bin	0.0040623520015333	139763
bin	0.0044156000016667	31262
bin	0.0047688480018	16637
bin	0.0051220960019333	162926
bin	0.0054753440020667	15266
bin	0.0058285920022	23040
bin	0.0061818400023333	14474
bin	0.0065350880024667	9419
bin	0.0068883360026	9441
bin	0.0072415840027333	5306
bin	0.0075948320028667	4725
bin	0.007948080003	76132
scalar University.remoteR.ppp[0].queue 	dropPk:count 	0
attr interpolationmode  none
attr source  dropPkByQueue
attr title  "dropped packets, count"
scalar University.remoteR.ppp[0].queue 	dropPk:sum(packetBytes) 	0
attr interpolationmode  none
attr source  dropPkByQueue
attr title  "dropped packets, sum(packetBytes)"
scalar University.remoteR.ppp[0].queue 	queueLength:max 	68
attr interpolationmode  sample-hold
attr title  "queue length, max"
scalar University.remoteR.ppp[0].queue 	queueLength:timeavg 	0.92381915071554
attr interpolationmode  sample-hold
attr title  "queue length, timeavg"
scalar University.remoteR.ppp[0].queue 	rcvdPk:count 	2474534
attr interpolationmode  none
attr title  "received packets, count"
scalar University.remoteR.ppp[0].queue 	rcvdPk:sum(packetBytes) 	1991702918
attr interpolationmode  none
attr title  "received packets, sum(packetBytes)"
scalar University.remoteR.ppp[0].ppp 	rcvdPkFromHL:count 	2474529
attr interpolationmode  none
attr source  packetReceivedFromUpper
attr title  "packets received from higher layer, count"
scalar University.remoteR.ppp[0].ppp 	rcvdPkFromHL:sum(packetBytes) 	1991695530
attr interpolationmode  none
attr source  packetReceivedFromUpper
attr title  "packets received from higher layer, sum(packetBytes)"
scalar University.remoteR.ppp[0].ppp 	passedUpPk:count 	1532988
attr interpolationmode  none
attr source  packetSentToUpper
attr title  "packets passed to higher layer, count"
scalar University.remoteR.ppp[0].ppp 	passedUpPk:sum(packetBytes) 	1932848602
attr interpolationmode  none
attr source  packetSentToUpper
attr title  "packets passed to higher layer, sum(packetBytes)"
scalar University.remoteR.ppp[0].ppp 	txPk:count 	2474529
attr interpolationmode  none
attr source  packetSentToLower
attr title  "packets transmitted, count"
scalar University.remoteR.ppp[0].ppp 	txPk:sum(packetBytes) 	2009017233
attr interpolationmode  none
attr source  packetSentToLower
attr title  "packets transmitted, sum(packetBytes)"
scalar University.remoteR.ppp[0].ppp 	droppedPkBitError:count 	0
attr interpolationmode  none
attr source  dropPkBitError
attr title  "packets dropped/bit error, count"
scalar University.remoteR.ppp[0].ppp 	droppedPkBitError:sum(packetBytes) 	0
attr interpolationmode  none
attr source  dropPkBitError
attr title  "packets dropped/bit error, sum(packetBytes)"
scalar University.remoteR.ppp[0].ppp 	droppedPkIfaceDown:count 	0
attr interpolationmode  none
attr source  dropPkIfaceDown
attr title  "packets dropped/interface down, count"
scalar University.remoteR.ppp[0].ppp 	droppedPkIfaceDown:sum(packetBytes) 	0
attr interpolationmode  none
attr source  dropPkIfaceDown
attr title  "packets dropped/interface down, sum(packetBytes)"
scalar University.remoteR.ppp[0].ppp 	rxPkOk:count 	1532988
attr interpolationmode  none
attr source  rxPkOk
attr title  "packets received OK, count"
scalar University.remoteR.ppp[0].ppp 	rxPkOk:sum(packetBytes) 	1943579518
attr interpolationmode  none
attr source  rxPkOk
attr title  "packets received OK, sum(packetBytes)"
scalar University.remoteR.ppp[0].ppp 	txState:timeavg 	0.2480267734192
attr interpolationmode  sample-hold
attr title  "tx state, timeavg"
scalar University.mainR.networkLayer.arp 	initiatedARPResolution:count 	0
attr title  "ARP initiated resolutions, count"
scalar University.mainR.networkLayer.arp 	sentReply:count 	0
attr title  "ARP replies sent, count"
scalar University.mainR.networkLayer.arp 	sentReq:count 	0
attr title  "ARP request sent, count"
scalar University.mainR.networkLayer.arp 	failedARPResolution:count 	0
attr title  "ARP failed resolutions, count"
scalar University.mainR.networkLayer.arp 	completedARPResolution:count 	0
attr title  "ARP completed resolutions, count"
scalar University.mainR.lo0.lo 	rcvdPkFromHL:count 	0
attr interpolationmode  none
attr source  packetReceivedFromUpper
attr title  "packets received from higher layer, count"
scalar University.mainR.lo0.lo 	rcvdPkFromHL:sum(packetBytes) 	0
attr interpolationmode  none
attr source  packetReceivedFromUpper
attr title  "packets received from higher layer, sum(packetBytes)"
scalar University.mainR.lo0.lo 	passedUpPk:count 	0
attr interpolationmode  none
attr source  packetSentToUpper
attr title  "packets passed to higher layer, count"
scalar University.mainR.lo0.lo 	passedUpPk:sum(packetBytes) 	0
attr interpolationmode  none
attr source  packetSentToUpper
attr title  "packets passed to higher layer, sum(packetBytes)"
scalar University.mainR.lo0.lo 	droppedPkBitError:count 	0
attr interpolationmode  none
attr source  dropPkBitError
attr title  "packets dropped/bit error, count"
scalar University.mainR.lo0.lo 	droppedPkBitError:sum(packetBytes) 	0
attr interpolationmode  none
attr source  dropPkBitError
attr title  "packets dropped/bit error, sum(packetBytes)"
statistic University.mainR.ppp[0].queue 	queueingTime:histogram
field count 1532988
field mean 0.022189569418972
field stddev 0.032074499188431
field sum 34016.343644451
field sqrsum 2331.9044173459
field min 0
field max 0.10046666659
attr interpolationmode  none
attr title  "queueing time, histogram"
bin	-INF	0
bin	-0.000417170058	0
bin	-0.0003615473836	0
bin	-0.0003059247092	0
bin	-0.0002503020348	0
bin	-0.0001946793604	0
bin	-0.000139056686	0
bin	-8.34340116e-05	0
bin	-2.78113372e-05	545638
bin	2.78113372e-05	6557
bin	8.34340116e-05	5619
bin	0.000139056686	2003
bin	0.0001946793604	1072
bin	0.0002503020348	819
bin	0.0003059247092	1081
bin	0.0003615473836	1170
bin	0.000417170058	1206
bin	0.0004727927324	1600
bin	0.0005284154068	2602
bin	0.0005840380812	4445
bin	0.0006396607556	2208
bin	0.00069528343	2571
bin	0.0007509061044	2376
bin	0.0008065287788	2580
bin	0.0008621514532	45004
bin	0.0009177741276	11378
bin	0.000973396802	11908
bin	0.0010290194764	3257
bin	0.0010846421508	1868
bin	0.0011402648252	1282
bin	0.0011958874996	1200
bin	0.001251510174	873544
scalar University.mainR.ppp[0].queue 	dropPk:count 	78029
attr interpolationmode  none
attr source  dropPkByQueue
attr title  "dropped packets, count"
scalar University.mainR.ppp[0].queue 	dropPk:sum(packetBytes) 	116824416
attr interpolationmode  none
attr source  dropPkByQueue
attr title  "dropped packets, sum(packetBytes)"
scalar University.mainR.ppp[0].queue 	queueLength:max 	100
attr interpolationmode  sample-hold
attr title  "queue length, max"
scalar University.mainR.ppp[0].queue 	queueLength:timeavg 	6.2993217478352
attr interpolationmode  sample-hold
attr title  "queue length, timeavg"
scalar University.mainR.ppp[0].queue 	rcvdPk:count 	1611017
attr interpolationmode  none
attr title  "received packets, count"
scalar University.mainR.ppp[0].queue 	rcvdPk:sum(packetBytes) 	2049673018
attr interpolationmode  none
attr title  "received packets, sum(packetBytes)"
scalar University.mainR.ppp[0].ppp 	rcvdPkFromHL:count 	1532988
attr interpolationmode  none
attr source  packetReceivedFromUpper
attr title  "packets received from higher layer, count"
scalar University.mainR.ppp[0].ppp 	rcvdPkFromHL:sum(packetBytes) 	1932848602
attr interpolationmode  none
attr source  packetReceivedFromUpper
attr title  "packets received from higher layer, sum(packetBytes)"
scalar University.mainR.ppp[0].ppp 	passedUpPk:count 	2474527
attr interpolationmode  none
attr source  packetSentToUpper
attr title  "packets passed to higher layer, count"
scalar University.mainR.ppp[0].ppp 	passedUpPk:sum(packetBytes) 	1991692530
attr interpolationmode  none
attr source  packetSentToUpper
attr title  "packets passed to higher layer, sum(packetBytes)"
scalar University.mainR.ppp[0].ppp 	txPk:count 	1532988
attr interpolationmode  none
attr source  packetSentToLower
attr title  "packets transmitted, count"
scalar University.mainR.ppp[0].ppp 	txPk:sum(packetBytes) 	1943579518
attr interpolationmode  none
attr source  packetSentToLower
attr title  "packets transmitted, sum(packetBytes)"
scalar University.mainR.ppp[0].ppp 	droppedPkBitError:count 	0
attr interpolationmode  none
attr source  dropPkBitError
attr title  "packets dropped/bit error, count"
scalar University.mainR.ppp[0].ppp 	droppedPkBitError:sum(packetBytes) 	0
attr interpolationmode  none
attr source  dropPkBitError
attr title  "packets dropped/bit error, sum(packetBytes)"
scalar University.mainR.ppp[0].ppp 	droppedPkIfaceDown:count 	0
attr interpolationmode  none
attr source  dropPkIfaceDown
attr title  "packets dropped/interface down, count"
scalar University.mainR.ppp[0].ppp 	droppedPkIfaceDown:sum(packetBytes) 	0
attr interpolationmode  none
attr source  dropPkIfaceDown
attr title  "packets dropped/interface down, sum(packetBytes)"
scalar University.mainR.ppp[0].ppp 	rxPkOk:count 	2474527
attr interpolationmode  none
attr source  rxPkOk
attr title  "packets received OK, count"
scalar University.mainR.ppp[0].ppp 	rxPkOk:sum(packetBytes) 	2009014219
attr interpolationmode  none
attr source  rxPkOk
attr title  "packets received OK, sum(packetBytes)"
scalar University.mainR.ppp[0].ppp 	txState:timeavg 	0.23994804468521
attr interpolationmode  sample-hold
attr title  "tx state, timeavg"
statistic University.mainR.ppp[1].queue 	queueingTime:histogram
field count 134997
field mean 0
field stddev 0
field sum 0
field sqrsum 0
field min 0
field max 0
attr interpolationmode  none
attr title  "queueing time, histogram"
bin	-INF	0
bin	-0.5	0
bin	-0.46666666666667	0
bin	-0.43333333333333	0
bin	-0.4	0
bin	-0.36666666666667	0
bin	-0.33333333333333	0
bin	-0.3	0
bin	-0.26666666666667	0
bin	-0.23333333333333	0
bin	-0.2	0
bin	-0.16666666666667	0
bin	-0.13333333333333	0
bin	-0.1	0
bin	-0.066666666666667	0
bin	-0.033333333333333	0
bin	0	134997
bin	0.033333333333333	0
bin	0.066666666666667	0
bin	0.1	0
bin	0.13333333333333	0
bin	0.16666666666667	0
bin	0.2	0
bin	0.23333333333333	0
bin	0.26666666666667	0
bin	0.3	0
bin	0.33333333333333	0
bin	0.36666666666667	0
bin	0.4	0
bin	0.43333333333333	0
bin	0.46666666666667	0
bin	0.5	0
scalar University.mainR.ppp[1].queue 	dropPk:count 	0
attr interpolationmode  none
attr source  dropPkByQueue
attr title  "dropped packets, count"
scalar University.mainR.ppp[1].queue 	dropPk:sum(packetBytes) 	0
attr interpolationmode  none
attr source  dropPkByQueue
attr title  "dropped packets, sum(packetBytes)"
scalar University.mainR.ppp[1].queue 	queueLength:max 	0
attr interpolationmode  sample-hold
attr title  "queue length, max"
scalar University.mainR.ppp[1].queue 	queueLength:timeavg 	0
attr interpolationmode  sample-hold
attr title  "queue length, timeavg"
scalar University.mainR.ppp[1].queue 	rcvdPk:count 	134997
attr interpolationmode  none
attr title  "received packets, count"
scalar University.mainR.ppp[1].queue 	rcvdPk:sum(packetBytes) 	192775716
attr interpolationmode  none
attr title  "received packets, sum(packetBytes)"
scalar University.mainR.ppp[1].ppp 	rcvdPkFromHL:count 	134997
attr interpolationmode  none
attr source  packetReceivedFromUpper
attr title  "packets received from higher layer, count"
scalar University.mainR.ppp[1].ppp 	rcvdPkFromHL:sum(packetBytes) 	192775716
attr interpolationmode  none
attr source  packetReceivedFromUpper
attr title  "packets received from higher layer, sum(packetBytes)"
scalar University.mainR.ppp[1].ppp 	passedUpPk:count 	134999
attr interpolationmode  none
attr source  packetSentToUpper
attr title  "packets passed to higher layer, count"
scalar University.mainR.ppp[1].ppp 	passedUpPk:sum(packetBytes) 	192778572
attr interpolationmode  none
attr source  packetSentToUpper
attr title  "packets passed to higher layer, sum(packetBytes)"
scalar University.mainR.ppp[1].ppp 	txPk:count 	134997
attr interpolationmode  none
attr source  packetSentToLower
attr title  "packets transmitted, count"
scalar University.mainR.ppp[1].ppp 	txPk:sum(packetBytes) 	193720695
attr interpolationmode  none
attr source  packetSentToLower
attr title  "packets transmitted, sum(packetBytes)"
scalar University.mainR.ppp[1].ppp 	droppedPkBitError:count 	0
attr interpolationmode  none
attr source  dropPkBitError
attr title  "packets dropped/bit error, count"
scalar University.mainR.ppp[1].ppp 	droppedPkBitError:sum(packetBytes) 	0
attr interpolationmode  none
attr source  dropPkBitError
attr title  "packets dropped/bit error, sum(packetBytes)"
scalar University.mainR.ppp[1].ppp 	droppedPkIfaceDown:count 	0
attr interpolationmode  none
attr source  dropPkIfaceDown
attr title  "packets dropped/interface down, count"
scalar University.mainR.ppp[1].ppp 	droppedPkIfaceDown:sum(packetBytes) 	0
attr interpolationmode  none
attr source  dropPkIfaceDown
attr title  "packets dropped/interface down, sum(packetBytes)"
scalar University.mainR.ppp[1].ppp 	rxPkOk:count 	134999
attr interpolationmode  none
attr source  rxPkOk
attr title  "packets received OK, count"
scalar University.mainR.ppp[1].ppp 	rxPkOk:sum(packetBytes) 	193723565
attr interpolationmode  none
attr source  rxPkOk
attr title  "packets received OK, sum(packetBytes)"
scalar University.mainR.ppp[1].ppp 	txState:timeavg 	0
attr interpolationmode  sample-hold
attr title  "tx state, timeavg"
statistic University.mainR.ppp[2].queue 	queueingTime:histogram
field count 1394537
field mean 1.4853161340856e-06
field stddev 1.1077781245457e-05
field sum 2.0713283056794
field sqrsum 0.00017421018261776
field min 0
field max 8.9226667e-05
attr interpolationmode  none
attr title  "queueing time, histogram"
bin	-INF	0
bin	-0.5	0
bin	-0.46666666666667	0
bin	-0.43333333333333	0
bin	-0.4	0
bin	-0.36666666666667	0
bin	-0.33333333333333	0
bin	-0.3	0
bin	-0.26666666666667	0
bin	-0.23333333333333	0
bin	-0.2	0
bin	-0.16666666666667	0
bin	-0.13333333333333	0
bin	-0.1	0
bin	-0.066666666666667	0
bin	-0.033333333333333	0
bin	0	1394537
bin	0.033333333333333	0
bin	0.066666666666667	0
bin	0.1	0
bin	0.13333333333333	0
bin	0.16666666666667	0
bin	0.2	0
bin	0.23333333333333	0
bin	0.26666666666667	0
bin	0.3	0
bin	0.33333333333333	0
bin	0.36666666666667	0
bin	0.4	0
bin	0.43333333333333	0
bin	0.46666666666667	0
bin	0.5	0
scalar University.mainR.ppp[2].queue 	dropPk:count 	0
attr interpolationmode  none
attr source  dropPkByQueue
attr title  "dropped packets, count"
scalar University.mainR.ppp[2].queue 	dropPk:sum(packetBytes) 	0
attr interpolationmode  none
attr source  dropPkByQueue
attr title  "dropped packets, sum(packetBytes)"
scalar University.mainR.ppp[2].queue 	queueLength:max 	3
attr interpolationmode  sample-hold
attr title  "queue length, max"
scalar University.mainR.ppp[2].queue 	queueLength:timeavg 	0.0003835792458842
attr interpolationmode  sample-hold
attr title  "queue length, timeavg"
scalar University.mainR.ppp[2].queue 	rcvdPk:count 	1394537
attr interpolationmode  none
attr title  "received packets, count"
scalar University.mainR.ppp[2].queue 	rcvdPk:sum(packetBytes) 	396547202
attr interpolationmode  none
attr title  "received packets, sum(packetBytes)"
scalar University.mainR.ppp[2].ppp 	rcvdPkFromHL:count 	1394537
attr interpolationmode  none
attr source  packetReceivedFromUpper
attr title  "packets received from higher layer, count"
scalar University.mainR.ppp[2].ppp 	rcvdPkFromHL:sum(packetBytes) 	396547202
attr interpolationmode  none
attr source  packetReceivedFromUpper
attr title  "packets received from higher layer, sum(packetBytes)"
scalar University.mainR.ppp[2].ppp 	passedUpPk:count 	1476017
attr interpolationmode  none
attr source  packetSentToUpper
attr title  "packets passed to higher layer, count"
scalar University.mainR.ppp[2].ppp 	passedUpPk:sum(packetBytes) 	1856894418
attr interpolationmode  none
attr source  packetSentToUpper
attr title  "packets passed to higher layer, sum(packetBytes)"
scalar University.mainR.ppp[2].ppp 	txPk:count 	1394537
attr interpolationmode  none
attr source  packetSentToLower
attr title  "packets transmitted, count"
scalar University.mainR.ppp[2].ppp 	txPk:sum(packetBytes) 	406308961
attr interpolationmode  none
attr source  packetSentToLower
attr title  "packets transmitted, sum(packetBytes)"
scalar University.mainR.ppp[2].ppp 	droppedPkBitError:count 	0
attr interpolationmode  none
attr source  dropPkBitError
attr title  "packets dropped/bit error, count"
scalar University.mainR.ppp[2].ppp 	droppedPkBitError:sum(packetBytes) 	0
attr interpolationmode  none
attr source  dropPkBitError
attr title  "packets dropped/bit error, sum(packetBytes)"
scalar University.mainR.ppp[2].ppp 	droppedPkIfaceDown:count 	0
attr interpolationmode  none
attr source  dropPkIfaceDown
attr title  "packets dropped/interface down, count"
scalar University.mainR.ppp[2].ppp 	droppedPkIfaceDown:sum(packetBytes) 	0
attr interpolationmode  none
attr source  dropPkIfaceDown
attr title  "packets dropped/interface down, sum(packetBytes)"
scalar University.mainR.ppp[2].ppp 	rxPkOk:count 	1476017
attr interpolationmode  none
attr source  rxPkOk
attr title  "packets received OK, count"
scalar University.mainR.ppp[2].ppp 	rxPkOk:sum(packetBytes) 	1867226537
attr interpolationmode  none
attr source  rxPkOk
attr title  "packets received OK, sum(packetBytes)"
scalar University.mainR.ppp[2].ppp 	txState:timeavg 	0.0060193909160745
attr interpolationmode  sample-hold
attr title  "tx state, timeavg"
statistic University.mainR.ppp[3].queue 	queueingTime:histogram
field count 944993
field mean 0
field stddev 0
field sum 0
field sqrsum 0
field min 0
field max 0
attr interpolationmode  none
attr title  "queueing time, histogram"
bin	-INF	0
bin	-0.5	0
bin	-0.46666666666667	0
bin	-0.43333333333333	0
bin	-0.4	0
bin	-0.36666666666667	0
bin	-0.33333333333333	0
bin	-0.3	0
bin	-0.26666666666667	0
bin	-0.23333333333333	0
bin	-0.2	0
bin	-0.16666666666667	0
bin	-0.13333333333333	0
bin	-0.1	0
bin	-0.066666666666667	0
bin	-0.033333333333333	0
bin	0	944993
bin	0.033333333333333	0
bin	0.066666666666667	0
bin	0.1	0
bin	0.13333333333333	0
bin	0.16666666666667	0
bin	0.2	0
bin	0.23333333333333	0
bin	0.26666666666667	0
bin	0.3	0
bin	0.33333333333333	0
bin	0.36666666666667	0
bin	0.4	0
bin	0.43333333333333	0
bin	0.46666666666667	0
bin	0.5	0
scalar University.mainR.ppp[3].queue 	dropPk:count 	0
attr interpolationmode  none
attr source  dropPkByQueue
attr title  "dropped packets, count"
scalar University.mainR.ppp[3].queue 	dropPk:sum(packetBytes) 	0
attr interpolationmode  none
attr source  dropPkByQueue
attr title  "dropped packets, sum(packetBytes)"
scalar University.mainR.ppp[3].queue 	queueLength:max 	0
attr interpolationmode  sample-hold
attr title  "queue length, max"
scalar University.mainR.ppp[3].queue 	queueLength:timeavg 	0
attr interpolationmode  sample-hold
attr title  "queue length, timeavg"
scalar University.mainR.ppp[3].queue 	rcvdPk:count 	944993
attr interpolationmode  none
attr title  "received packets, count"
scalar University.mainR.ppp[3].queue 	rcvdPk:sum(packetBytes) 	1402369612
attr interpolationmode  none
attr title  "received packets, sum(packetBytes)"
scalar University.mainR.ppp[3].ppp 	rcvdPkFromHL:count 	944993
attr interpolationmode  none
attr source  packetReceivedFromUpper
attr title  "packets received from higher layer, count"
scalar University.mainR.ppp[3].ppp 	rcvdPkFromHL:sum(packetBytes) 	1402369612
attr interpolationmode  none
attr source  packetReceivedFromUpper
attr title  "packets received from higher layer, sum(packetBytes)"
scalar University.mainR.ppp[3].ppp 	passedUpPk:count 	1
attr interpolationmode  none
attr source  packetSentToUpper
attr title  "packets passed to higher layer, count"
scalar University.mainR.ppp[3].ppp 	passedUpPk:sum(packetBytes) 	28
attr interpolationmode  none
attr source  packetSentToUpper
attr title  "packets passed to higher layer, sum(packetBytes)"
scalar University.mainR.ppp[3].ppp 	txPk:count 	944993
attr interpolationmode  none
attr source  packetSentToLower
attr title  "packets transmitted, count"
scalar University.mainR.ppp[3].ppp 	txPk:sum(packetBytes) 	1408984563
attr interpolationmode  none
attr source  packetSentToLower
attr title  "packets transmitted, sum(packetBytes)"
scalar University.mainR.ppp[3].ppp 	droppedPkBitError:count 	0
attr interpolationmode  none
attr source  dropPkBitError
attr title  "packets dropped/bit error, count"
scalar University.mainR.ppp[3].ppp 	droppedPkBitError:sum(packetBytes) 	0
attr interpolationmode  none
attr source  dropPkBitError
attr title  "packets dropped/bit error, sum(packetBytes)"
scalar University.mainR.ppp[3].ppp 	droppedPkIfaceDown:count 	0
attr interpolationmode  none
attr source  dropPkIfaceDown
attr title  "packets dropped/interface down, count"
scalar University.mainR.ppp[3].ppp 	droppedPkIfaceDown:sum(packetBytes) 	0
attr interpolationmode  none
attr source  dropPkIfaceDown
attr title  "packets dropped/interface down, sum(packetBytes)"
scalar University.mainR.ppp[3].ppp 	rxPkOk:count 	1
attr interpolationmode  none
attr source  rxPkOk
attr title  "packets received OK, count"
scalar University.mainR.ppp[3].ppp 	rxPkOk:sum(packetBytes) 	35
attr interpolationmode  none
attr source  rxPkOk
attr title  "packets received OK, sum(packetBytes)"
scalar University.mainR.ppp[3].ppp 	txState:timeavg 	0
attr interpolationmode  sample-hold
attr title  "tx state, timeavg"
scalar University.ccTVMonitoringHost.networkLayer.arp 	initiatedARPResolution:count 	0
attr title  "ARP initiated resolutions, count"
scalar University.ccTVMonitoringHost.networkLayer.arp 	sentReply:count 	0
attr title  "ARP replies sent, count"
scalar University.ccTVMonitoringHost.networkLayer.arp 	sentReq:count 	0
attr title  "ARP request sent, count"
scalar University.ccTVMonitoringHost.networkLayer.arp 	failedARPResolution:count 	0
attr title  "ARP failed resolutions, count"
scalar University.ccTVMonitoringHost.networkLayer.arp 	completedARPResolution:count 	0
attr title  "ARP completed resolutions, count"
scalar University.ccTVMonitoringHost.lo0.lo 	rcvdPkFromHL:count 	0
attr interpolationmode  none
attr source  packetReceivedFromUpper
attr title  "packets received from higher layer, count"
scalar University.ccTVMonitoringHost.lo0.lo 	rcvdPkFromHL:sum(packetBytes) 	0
attr interpolationmode  none
attr source  packetReceivedFromUpper
attr title  "packets received from higher layer, sum(packetBytes)"
scalar University.ccTVMonitoringHost.lo0.lo 	passedUpPk:count 	0
attr interpolationmode  none
attr source  packetSentToUpper
attr title  "packets passed to higher layer, count"
scalar University.ccTVMonitoringHost.lo0.lo 	passedUpPk:sum(packetBytes) 	0
attr interpolationmode  none
attr source  packetSentToUpper
attr title  "packets passed to higher layer, sum(packetBytes)"
scalar University.ccTVMonitoringHost.lo0.lo 	droppedPkBitError:count 	0
attr interpolationmode  none
attr source  dropPkBitError
attr title  "packets dropped/bit error, count"
scalar University.ccTVMonitoringHost.lo0.lo 	droppedPkBitError:sum(packetBytes) 	0
attr interpolationmode  none
attr source  dropPkBitError
attr title  "packets dropped/bit error, sum(packetBytes)"
statistic University.ccTVMonitoringHost.ppp[0].queue 	queueingTime:histogram
field count 1
field mean 0
field stddev -nan
field sum 0
field sqrsum 0
field min 0
field max 0
attr interpolationmode  none
attr title  "queueing time, histogram"
bin	-INF	0
bin	-0.5	0
bin	-0.46666666666667	0
bin	-0.43333333333333	0
bin	-0.4	0
bin	-0.36666666666667	0
bin	-0.33333333333333	0
bin	-0.3	0
bin	-0.26666666666667	0
bin	-0.23333333333333	0
bin	-0.2	0
bin	-0.16666666666667	0
bin	-0.13333333333333	0
bin	-0.1	0
bin	-0.066666666666667	0
bin	-0.033333333333333	0
bin	0	1
bin	0.033333333333333	0
bin	0.066666666666667	0
bin	0.1	0
bin	0.13333333333333	0
bin	0.16666666666667	0
bin	0.2	0
bin	0.23333333333333	0
bin	0.26666666666667	0
bin	0.3	0
bin	0.33333333333333	0
bin	0.36666666666667	0
bin	0.4	0
bin	0.43333333333333	0
bin	0.46666666666667	0
bin	0.5	0
scalar University.ccTVMonitoringHost.ppp[0].queue 	dropPk:count 	0
attr interpolationmode  none
attr source  dropPkByQueue
attr title  "dropped packets, count"
scalar University.ccTVMonitoringHost.ppp[0].queue 	dropPk:sum(packetBytes) 	0
attr interpolationmode  none
attr source  dropPkByQueue
attr title  "dropped packets, sum(packetBytes)"
scalar University.ccTVMonitoringHost.ppp[0].queue 	queueLength:max 	0
attr interpolationmode  sample-hold
attr title  "queue length, max"
scalar University.ccTVMonitoringHost.ppp[0].queue 	queueLength:timeavg 	0
attr interpolationmode  sample-hold
attr title  "queue length, timeavg"
scalar University.ccTVMonitoringHost.ppp[0].queue 	rcvdPk:count 	1
attr interpolationmode  none
attr title  "received packets, count"
scalar University.ccTVMonitoringHost.ppp[0].queue 	rcvdPk:sum(packetBytes) 	28
attr interpolationmode  none
attr title  "received packets, sum(packetBytes)"
scalar University.ccTVMonitoringHost.ppp[0].ppp 	rcvdPkFromHL:count 	1
attr interpolationmode  none
attr source  packetReceivedFromUpper
attr title  "packets received from higher layer, count"
scalar University.ccTVMonitoringHost.ppp[0].ppp 	rcvdPkFromHL:sum(packetBytes) 	28
attr interpolationmode  none
attr source  packetReceivedFromUpper
attr title  "packets received from higher layer, sum(packetBytes)"
scalar University.ccTVMonitoringHost.ppp[0].ppp 	passedUpPk:count 	944993
attr interpolationmode  none
attr source  packetSentToUpper
attr title  "packets passed to higher layer, count"
scalar University.ccTVMonitoringHost.ppp[0].ppp 	passedUpPk:sum(packetBytes) 	1402369612
attr interpolationmode  none
attr source  packetSentToUpper
attr title  "packets passed to higher layer, sum(packetBytes)"
scalar University.ccTVMonitoringHost.ppp[0].ppp 	txPk:count 	1
attr interpolationmode  none
attr source  packetSentToLower
attr title  "packets transmitted, count"
scalar University.ccTVMonitoringHost.ppp[0].ppp 	txPk:sum(packetBytes) 	35
attr interpolationmode  none
attr source  packetSentToLower
attr title  "packets transmitted, sum(packetBytes)"
scalar University.ccTVMonitoringHost.ppp[0].ppp 	droppedPkBitError:count 	0
attr interpolationmode  none
attr source  dropPkBitError
attr title  "packets dropped/bit error, count"
scalar University.ccTVMonitoringHost.ppp[0].ppp 	droppedPkBitError:sum(packetBytes) 	0
attr interpolationmode  none
attr source  dropPkBitError
attr title  "packets dropped/bit error, sum(packetBytes)"
scalar University.ccTVMonitoringHost.ppp[0].ppp 	droppedPkIfaceDown:count 	0
attr interpolationmode  none
attr source  dropPkIfaceDown
attr title  "packets dropped/interface down, count"
scalar University.ccTVMonitoringHost.ppp[0].ppp 	droppedPkIfaceDown:sum(packetBytes) 	0
attr interpolationmode  none
attr source  dropPkIfaceDown
attr title  "packets dropped/interface down, sum(packetBytes)"
scalar University.ccTVMonitoringHost.ppp[0].ppp 	rxPkOk:count 	944993
attr interpolationmode  none
attr source  rxPkOk
attr title  "packets received OK, count"
scalar University.ccTVMonitoringHost.ppp[0].ppp 	rxPkOk:sum(packetBytes) 	1408984563
attr interpolationmode  none
attr source  rxPkOk
attr title  "packets received OK, sum(packetBytes)"
scalar University.ccTVMonitoringHost.ppp[0].ppp 	txState:timeavg 	0
attr interpolationmode  sample-hold
attr title  "tx state, timeavg"
scalar University.ccTVMonitoringHost.udpApp[0] 	rcvdPk:count 	134999
attr interpolationmode  none
attr source  rcvdPk
attr title  "packets received, count"
scalar University.ccTVMonitoringHost.udpApp[0] 	rcvdPk:sum(packetBytes) 	1382389760
attr interpolationmode  none
attr source  rcvdPk
attr title  "packets received, sum(packetBytes)"
statistic University.ccTVMonitoringHost.udpApp[0] 	endToEndDelay:histogram
field count 134999
field mean 0.017333530744363
field stddev 0.0018397231721971
field sum 2340.0093169582
field sqrsum 41.01753515072
field min 0.017080129996
field max 0.078099763919
attr interpolationmode  none
attr source  messageAge(rcvdPk)
attr title  "end-to-end delay, histogram"
attr unit  s
bin	-INF	0
bin	0.0015599642735	0
bin	0.0036293197031667	0
bin	0.0056986751328333	0
bin	0.0077680305625	0
bin	0.0098373859921667	0
bin	0.011906741421833	0
bin	0.0139760968515	0
bin	0.016045452281167	130005
bin	0.018114807710833	2707
bin	0.0201841631405	467
bin	0.022253518570167	374
bin	0.024322873999833	326
bin	0.0263922294295	235
bin	0.028461584859167	171
bin	0.030530940288833	149
bin	0.0326002957185	102
bin	0.034669651148167	88
bin	0.036739006577833	96
bin	0.0388083620075	68
bin	0.040877717437167	63
bin	0.042947072866833	39
bin	0.0450164282965	35
bin	0.047085783726167	34
bin	0.049155139155833	15
bin	0.0512244945855	8
bin	0.053293850015167	2
bin	0.055363205444833	1
bin	0.0574325608745	1
bin	0.059501916304167	1
bin	0.061571271733833	3
bin	0.0636406271635	9
scalar University.ccTVMonitoringHost.udp 	droppedPkBadChecksum:count 	0
attr interpolationmode  none
attr title  "packets dropped (checksum error), count"
scalar University.ccTVMonitoringHost.udp 	droppedPkWrongPort:count 	0
attr interpolationmode  none
attr title  "packets dropped (wrong port), count"
scalar University.ccTVMonitoringHost.udp 	passedUpPk:count 	134999
attr interpolationmode  none
attr title  "packets passed up, count"
scalar University.ccTVMonitoringHost.udp 	sentPk:count 	1
attr interpolationmode  none
attr source  sentPk
attr title  "packets sent, count"
scalar University.ccTVMonitoringHost.udp 	sentPk:sum(packetBytes) 	8
attr interpolationmode  none
attr source  sentPk
attr title  "packets sent, sum(packetBytes)"
scalar University.ccTVMonitoringHost.udp 	rcvdPk:count 	134999
attr interpolationmode  none
attr source  rcvdPk
attr title  "packets received, count"
scalar University.ccTVMonitoringHost.udp 	rcvdPk:sum(packetBytes) 	1383469752
attr interpolationmode  none
attr source  rcvdPk
attr title  "packets received, sum(packetBytes)"
scalar University.profLaptop.networkLayer.arp 	initiatedARPResolution:count 	0
attr title  "ARP initiated resolutions, count"
scalar University.profLaptop.networkLayer.arp 	sentReply:count 	0
attr title  "ARP replies sent, count"
scalar University.profLaptop.networkLayer.arp 	sentReq:count 	0
attr title  "ARP request sent, count"
scalar University.profLaptop.networkLayer.arp 	failedARPResolution:count 	0
attr title  "ARP failed resolutions, count"
scalar University.profLaptop.networkLayer.arp 	completedARPResolution:count 	0
attr title  "ARP completed resolutions, count"
scalar University.profLaptop.lo0.lo 	rcvdPkFromHL:count 	0
attr interpolationmode  none
attr source  packetReceivedFromUpper
attr title  "packets received from higher layer, count"
scalar University.profLaptop.lo0.lo 	rcvdPkFromHL:sum(packetBytes) 	0
attr interpolationmode  none
attr source  packetReceivedFromUpper
attr title  "packets received from higher layer, sum(packetBytes)"
scalar University.profLaptop.lo0.lo 	passedUpPk:count 	0
attr interpolationmode  none
attr source  packetSentToUpper
attr title  "packets passed to higher layer, count"
scalar University.profLaptop.lo0.lo 	passedUpPk:sum(packetBytes) 	0
attr interpolationmode  none
attr source  packetSentToUpper
attr title  "packets passed to higher layer, sum(packetBytes)"
scalar University.profLaptop.lo0.lo 	droppedPkBitError:count 	0
attr interpolationmode  none
attr source  dropPkBitError
attr title  "packets dropped/bit error, count"
scalar University.profLaptop.lo0.lo 	droppedPkBitError:sum(packetBytes) 	0
attr interpolationmode  none
attr source  dropPkBitError
attr title  "packets dropped/bit error, sum(packetBytes)"
statistic University.profLaptop.ppp[0].queue 	queueingTime:histogram
field count 135000
field mean 0
field stddev 0
field sum 0
field sqrsum 0
field min 0
field max 0
attr interpolationmode  none
attr title  "queueing time, histogram"
bin	-INF	0
bin	-0.5	0
bin	-0.46666666666667	0
bin	-0.43333333333333	0
bin	-0.4	0
bin	-0.36666666666667	0
bin	-0.33333333333333	0
bin	-0.3	0
bin	-0.26666666666667	0
bin	-0.23333333333333	0
bin	-0.2	0
bin	-0.16666666666667	0
bin	-0.13333333333333	0
bin	-0.1	0
bin	-0.066666666666667	0
bin	-0.033333333333333	0
bin	0	135000
bin	0.033333333333333	0
bin	0.066666666666667	0
bin	0.1	0
bin	0.13333333333333	0
bin	0.16666666666667	0
bin	0.2	0
bin	0.23333333333333	0
bin	0.26666666666667	0
bin	0.3	0
bin	0.33333333333333	0
bin	0.36666666666667	0
bin	0.4	0
bin	0.43333333333333	0
bin	0.46666666666667	0
bin	0.5	0
scalar University.profLaptop.ppp[0].queue 	dropPk:count 	0
attr interpolationmode  none
attr source  dropPkByQueue
attr title  "dropped packets, count"
scalar University.profLaptop.ppp[0].queue 	dropPk:sum(packetBytes) 	0
attr interpolationmode  none
attr source  dropPkByQueue
attr title  "dropped packets, sum(packetBytes)"
scalar University.profLaptop.ppp[0].queue 	queueLength:max 	0
attr interpolationmode  sample-hold
attr title  "queue length, max"
scalar University.profLaptop.ppp[0].queue 	queueLength:timeavg 	0
attr interpolationmode  sample-hold
attr title  "queue length, timeavg"
scalar University.profLaptop.ppp[0].queue 	rcvdPk:count 	135000
attr interpolationmode  none
attr title  "received packets, count"
scalar University.profLaptop.ppp[0].queue 	rcvdPk:sum(packetBytes) 	192780000
attr interpolationmode  none
attr title  "received packets, sum(packetBytes)"
scalar University.profLaptop.ppp[0].ppp 	rcvdPkFromHL:count 	135000
attr interpolationmode  none
attr source  packetReceivedFromUpper
attr title  "packets received from higher layer, count"
scalar University.profLaptop.ppp[0].ppp 	rcvdPkFromHL:sum(packetBytes) 	192780000
attr interpolationmode  none
attr source  packetReceivedFromUpper
attr title  "packets received from higher layer, sum(packetBytes)"
scalar University.profLaptop.ppp[0].ppp 	passedUpPk:count 	134997
attr interpolationmode  none
attr source  packetSentToUpper
attr title  "packets passed to higher layer, count"
scalar University.profLaptop.ppp[0].ppp 	passedUpPk:sum(packetBytes) 	192775716
attr interpolationmode  none
attr source  packetSentToUpper
attr title  "packets passed to higher layer, sum(packetBytes)"
scalar University.profLaptop.ppp[0].ppp 	txPk:count 	135000
attr interpolationmode  none
attr source  packetSentToLower
attr title  "packets transmitted, count"
scalar University.profLaptop.ppp[0].ppp 	txPk:sum(packetBytes) 	193725000
attr interpolationmode  none
attr source  packetSentToLower
attr title  "packets transmitted, sum(packetBytes)"
scalar University.profLaptop.ppp[0].ppp 	droppedPkBitError:count 	0
attr interpolationmode  none
attr source  dropPkBitError
attr title  "packets dropped/bit error, count"
scalar University.profLaptop.ppp[0].ppp 	droppedPkBitError:sum(packetBytes) 	0
attr interpolationmode  none
attr source  dropPkBitError
attr title  "packets dropped/bit error, sum(packetBytes)"
scalar University.profLaptop.ppp[0].ppp 	droppedPkIfaceDown:count 	0
attr interpolationmode  none
attr source  dropPkIfaceDown
attr title  "packets dropped/interface down, count"
scalar University.profLaptop.ppp[0].ppp 	droppedPkIfaceDown:sum(packetBytes) 	0
attr interpolationmode  none
attr source  dropPkIfaceDown
attr title  "packets dropped/interface down, sum(packetBytes)"
scalar University.profLaptop.ppp[0].ppp 	rxPkOk:count 	134997
attr interpolationmode  none
attr source  rxPkOk
attr title  "packets received OK, count"
scalar University.profLaptop.ppp[0].ppp 	rxPkOk:sum(packetBytes) 	193720695
attr interpolationmode  none
attr source  rxPkOk
attr title  "packets received OK, sum(packetBytes)"
scalar University.profLaptop.ppp[0].ppp 	txState:timeavg 	0
attr interpolationmode  sample-hold
attr title  "tx state, timeavg"
scalar University.profLaptop.udpApp[0] 	"packets sent" 	135000
scalar University.profLaptop.udpApp[0] 	"packets received" 	134997
scalar University.profLaptop.udpApp[0] 	sentPk:count 	135000
attr interpolationmode  none
attr source  sentPk
attr title  "packets sent, count"
scalar University.profLaptop.udpApp[0] 	sentPk:sum(packetBytes) 	189000000
attr interpolationmode  none
attr source  sentPk
attr title  "packets sent, sum(packetBytes)"
scalar University.profLaptop.udpApp[0] 	rcvdPk:count 	134997
attr interpolationmode  none
attr source  rcvdPk
attr title  "packets received, count"
scalar University.profLaptop.udpApp[0] 	rcvdPk:sum(packetBytes) 	188995800
attr interpolationmode  none
attr source  rcvdPk
attr title  "packets received, sum(packetBytes)"
statistic University.profLaptop.udpApp[0] 	rcvdPkLifetime:stats
field count 134997
field mean 0.01738877378201
field stddev 0.0090525951511805
field sum 2347.43229425
field sqrsum 51.881820996491
field min 0.016345602724
field max 1.032798905624
attr interpolationmode  none
attr source  messageAge(rcvdPk)
attr title  "received packet lifetime, stats"
attr unit  s
scalar University.profLaptop.udp 	droppedPkBadChecksum:count 	0
attr interpolationmode  none
attr title  "packets dropped (checksum error), count"
scalar University.profLaptop.udp 	droppedPkWrongPort:count 	0
attr interpolationmode  none
attr title  "packets dropped (wrong port), count"
scalar University.profLaptop.udp 	passedUpPk:count 	134997
attr interpolationmode  none
attr title  "packets passed up, count"
scalar University.profLaptop.udp 	sentPk:count 	135000
attr interpolationmode  none
attr source  sentPk
attr title  "packets sent, count"
scalar University.profLaptop.udp 	sentPk:sum(packetBytes) 	190080000
attr interpolationmode  none
attr source  sentPk
attr title  "packets sent, sum(packetBytes)"
scalar University.profLaptop.udp 	rcvdPk:count 	134997
attr interpolationmode  none
attr source  rcvdPk
attr title  "packets received, count"
scalar University.profLaptop.udp 	rcvdPk:sum(packetBytes) 	190075776
attr interpolationmode  none
attr source  rcvdPk
attr title  "packets received, sum(packetBytes)"
scalar University.Server.networkLayer.arp 	initiatedARPResolution:count 	0
attr title  "ARP initiated resolutions, count"
scalar University.Server.networkLayer.arp 	sentReply:count 	0
attr title  "ARP replies sent, count"
scalar University.Server.networkLayer.arp 	sentReq:count 	0
attr title  "ARP request sent, count"
scalar University.Server.networkLayer.arp 	failedARPResolution:count 	0
attr title  "ARP failed resolutions, count"
scalar University.Server.networkLayer.arp 	completedARPResolution:count 	0
attr title  "ARP completed resolutions, count"
scalar University.Server.lo0.lo 	rcvdPkFromHL:count 	0
attr interpolationmode  none
attr source  packetReceivedFromUpper
attr title  "packets received from higher layer, count"
scalar University.Server.lo0.lo 	rcvdPkFromHL:sum(packetBytes) 	0
attr interpolationmode  none
attr source  packetReceivedFromUpper
attr title  "packets received from higher layer, sum(packetBytes)"
scalar University.Server.lo0.lo 	passedUpPk:count 	0
attr interpolationmode  none
attr source  packetSentToUpper
attr title  "packets passed to higher layer, count"
scalar University.Server.lo0.lo 	passedUpPk:sum(packetBytes) 	0
attr interpolationmode  none
attr source  packetSentToUpper
attr title  "packets passed to higher layer, sum(packetBytes)"
scalar University.Server.lo0.lo 	droppedPkBitError:count 	0
attr interpolationmode  none
attr source  dropPkBitError
attr title  "packets dropped/bit error, count"
scalar University.Server.lo0.lo 	droppedPkBitError:sum(packetBytes) 	0
attr interpolationmode  none
attr source  dropPkBitError
attr title  "packets dropped/bit error, sum(packetBytes)"
statistic University.Server.ppp[0].queue 	queueingTime:histogram
field count 1476024
field mean 0.00017785986373451
field stddev 0.00083875224109704
field sum 262.52542750887
field sqrsum 1.0850827725772
field min 0
field max 0.012056
attr interpolationmode  none
attr title  "queueing time, histogram"
bin	-INF	0
bin	-0.5	0
bin	-0.46666666666667	0
bin	-0.43333333333333	0
bin	-0.4	0
bin	-0.36666666666667	0
bin	-0.33333333333333	0
bin	-0.3	0
bin	-0.26666666666667	0
bin	-0.23333333333333	0
bin	-0.2	0
bin	-0.16666666666667	0
bin	-0.13333333333333	0
bin	-0.1	0
bin	-0.066666666666667	0
bin	-0.033333333333333	0
bin	0	1476024
bin	0.033333333333333	0
bin	0.066666666666667	0
bin	0.1	0
bin	0.13333333333333	0
bin	0.16666666666667	0
bin	0.2	0
bin	0.23333333333333	0
bin	0.26666666666667	0
bin	0.3	0
bin	0.33333333333333	0
bin	0.36666666666667	0
bin	0.4	0
bin	0.43333333333333	0
bin	0.46666666666667	0
bin	0.5	0
scalar University.Server.ppp[0].queue 	dropPk:count 	70295
attr interpolationmode  none
attr source  dropPkByQueue
attr title  "dropped packets, count"
scalar University.Server.ppp[0].queue 	dropPk:sum(packetBytes) 	105338252
attr interpolationmode  none
attr source  dropPkByQueue
attr title  "dropped packets, sum(packetBytes)"
scalar University.Server.ppp[0].queue 	queueLength:max 	100
attr interpolationmode  sample-hold
attr title  "queue length, max"
scalar University.Server.ppp[0].queue 	queueLength:timeavg 	0.04861581103923
attr interpolationmode  sample-hold
attr title  "queue length, timeavg"
scalar University.Server.ppp[0].queue 	rcvdPk:count 	1546319
attr interpolationmode  none
attr title  "received packets, count"
scalar University.Server.ppp[0].queue 	rcvdPk:sum(packetBytes) 	1962241710
attr interpolationmode  none
attr title  "received packets, sum(packetBytes)"
scalar University.Server.ppp[0].ppp 	rcvdPkFromHL:count 	1476024
attr interpolationmode  none
attr source  packetReceivedFromUpper
attr title  "packets received from higher layer, count"
scalar University.Server.ppp[0].ppp 	rcvdPkFromHL:sum(packetBytes) 	1856903458
attr interpolationmode  none
attr source  packetReceivedFromUpper
attr title  "packets received from higher layer, sum(packetBytes)"
scalar University.Server.ppp[0].ppp 	passedUpPk:count 	1394537
attr interpolationmode  none
attr source  packetSentToUpper
attr title  "packets passed to higher layer, count"
scalar University.Server.ppp[0].ppp 	passedUpPk:sum(packetBytes) 	396547202
attr interpolationmode  none
attr source  packetSentToUpper
attr title  "packets passed to higher layer, sum(packetBytes)"
scalar University.Server.ppp[0].ppp 	txPk:count 	1476024
attr interpolationmode  none
attr source  packetSentToLower
attr title  "packets transmitted, count"
scalar University.Server.ppp[0].ppp 	txPk:sum(packetBytes) 	1867235626
attr interpolationmode  none
attr source  packetSentToLower
attr title  "packets transmitted, sum(packetBytes)"
scalar University.Server.ppp[0].ppp 	droppedPkBitError:count 	0
attr interpolationmode  none
attr source  dropPkBitError
attr title  "packets dropped/bit error, count"
scalar University.Server.ppp[0].ppp 	droppedPkBitError:sum(packetBytes) 	0
attr interpolationmode  none
attr source  dropPkBitError
attr title  "packets dropped/bit error, sum(packetBytes)"
scalar University.Server.ppp[0].ppp 	droppedPkIfaceDown:count 	0
attr interpolationmode  none
attr source  dropPkIfaceDown
attr title  "packets dropped/interface down, count"
scalar University.Server.ppp[0].ppp 	droppedPkIfaceDown:sum(packetBytes) 	0
attr interpolationmode  none
attr source  dropPkIfaceDown
attr title  "packets dropped/interface down, sum(packetBytes)"
scalar University.Server.ppp[0].ppp 	rxPkOk:count 	1394537
attr interpolationmode  none
attr source  rxPkOk
attr title  "packets received OK, count"
scalar University.Server.ppp[0].ppp 	rxPkOk:sum(packetBytes) 	406308961
attr interpolationmode  none
attr source  rxPkOk
attr title  "packets received OK, sum(packetBytes)"
scalar University.Server.ppp[0].ppp 	txState:timeavg 	0.027662744967556
attr interpolationmode  sample-hold
attr title  "tx state, timeavg"
scalar University.Server.tcpApp[0] 	sentPk:count 	1911
attr interpolationmode  none
attr source  sentPk
attr title  "packets sent, count"
scalar University.Server.tcpApp[0] 	sentPk:sum(packetBytes) 	1634252892
attr interpolationmode  none
attr source  sentPk
attr title  "packets sent, sum(packetBytes)"
scalar University.Server.tcpApp[0] 	rcvdPk:count 	1911
attr interpolationmode  none
attr source  rcvdPk
attr title  "packets received, count"
scalar University.Server.tcpApp[0] 	rcvdPk:sum(packetBytes) 	1911
attr interpolationmode  none
attr source  rcvdPk
attr title  "packets received, sum(packetBytes)"
statistic University.Server.tcpApp[0] 	endToEndDelay:histogram
field count 1911
field mean 0.028168167144707
field stddev 0.0029508430154822
field sum 53.829367413536
field sqrsum 1.5329058948972
field min 0.026997862186
field max 0.066885559138
attr interpolationmode  none
attr source  messageAge(rcvdPk)
attr title  "end-to-end delay, histogram"
attr unit  s
bin	-INF	0
bin	0.022359039749	0
bin	0.022977549407267	0
bin	0.023596059065533	0
bin	0.0242145687238	0
bin	0.024833078382067	0
bin	0.025451588040333	0
bin	0.0260700976986	0
bin	0.026688607356867	1275
bin	0.027307117015133	113
bin	0.0279256266734	132
bin	0.028544136331667	76
bin	0.029162645989933	43
bin	0.0297811556482	41
bin	0.030399665306467	33
bin	0.031018174964733	45
bin	0.031636684623	28
bin	0.032255194281267	37
bin	0.032873703939533	34
bin	0.0334922135978	6
bin	0.034110723256067	8
bin	0.034729232914333	10
bin	0.0353477425726	5
bin	0.035966252230867	2
bin	0.036584761889133	1
bin	0.0372032715474	0
bin	0.037821781205667	0
bin	0.038440290863933	1
bin	0.0390588005222	0
bin	0.039677310180467	1
bin	0.040295819838733	1
bin	0.040914329497	19
scalar University.Server.tcpApp[1] 	sentPk:count 	311
attr interpolationmode  none
attr source  sentPk
attr title  "packets sent, count"
scalar University.Server.tcpApp[1] 	sentPk:sum(packetBytes) 	311
attr interpolationmode  none
attr source  sentPk
attr title  "packets sent, sum(packetBytes)"
scalar University.Server.tcpApp[1] 	rcvdPk:count 	311
attr interpolationmode  none
attr source  rcvdPk
attr title  "packets received, count"
scalar University.Server.tcpApp[1] 	rcvdPk:sum(packetBytes) 	326107136
attr interpolationmode  none
attr source  rcvdPk
attr title  "packets received, sum(packetBytes)"
statistic University.Server.tcpApp[1] 	endToEndDelay:histogram
field count 311
field mean 16.542491994832
field stddev 7.1107438531858
field sum 5144.7150103929
field sqrsum 100780.83710026
field min 4.553847034423
field max 50.82850401903
attr interpolationmode  none
attr source  messageAge(rcvdPk)
attr title  "end-to-end delay, histogram"
attr unit  s
bin	-INF	0
bin	-10.599014393729	0
bin	-8.5786328699754	0
bin	-6.5582513462218	0
bin	-4.5378698224682	0
bin	-2.5174882987146	0
bin	-0.497106774961	0
bin	1.5232747487926	0
bin	3.5436562725462	1
bin	5.5640377962998	19
bin	7.5844193200534	19
bin	9.604800843807	32
bin	11.625182367561	38
bin	13.645563891314	54
bin	15.665945415068	56
bin	17.686326938821	25
bin	19.706708462575	13
bin	21.727089986329	9
bin	23.747471510082	7
bin	25.767853033836	13
bin	27.788234557589	6
bin	29.808616081343	4
bin	31.828997605097	6
bin	33.84937912885	3
bin	35.869760652604	2
bin	37.890142176357	1
bin	39.910523700111	1
bin	41.930905223865	1
bin	43.951286747618	0
bin	45.971668271372	0
bin	47.992049795125	0
bin	50.012431318879	1
scalar University.CCTV.networkLayer.arp 	initiatedARPResolution:count 	44
attr title  "ARP initiated resolutions, count"
scalar University.CCTV.networkLayer.arp 	sentReply:count 	1
attr title  "ARP replies sent, count"
scalar University.CCTV.networkLayer.arp 	sentReq:count 	44
attr title  "ARP request sent, count"
scalar University.CCTV.networkLayer.arp 	failedARPResolution:count 	0
attr title  "ARP failed resolutions, count"
scalar University.CCTV.networkLayer.arp 	completedARPResolution:count 	45
attr title  "ARP completed resolutions, count"
scalar University.CCTV.lo0.lo 	rcvdPkFromHL:count 	0
attr interpolationmode  none
attr source  packetReceivedFromUpper
attr title  "packets received from higher layer, count"
scalar University.CCTV.lo0.lo 	rcvdPkFromHL:sum(packetBytes) 	0
attr interpolationmode  none
attr source  packetReceivedFromUpper
attr title  "packets received from higher layer, sum(packetBytes)"
scalar University.CCTV.lo0.lo 	passedUpPk:count 	0
attr interpolationmode  none
attr source  packetSentToUpper
attr title  "packets passed to higher layer, count"
scalar University.CCTV.lo0.lo 	passedUpPk:sum(packetBytes) 	0
attr interpolationmode  none
attr source  packetSentToUpper
attr title  "packets passed to higher layer, sum(packetBytes)"
scalar University.CCTV.lo0.lo 	droppedPkBitError:count 	0
attr interpolationmode  none
attr source  dropPkBitError
attr title  "packets dropped/bit error, count"
scalar University.CCTV.lo0.lo 	droppedPkBitError:sum(packetBytes) 	0
attr interpolationmode  none
attr source  dropPkBitError
attr title  "packets dropped/bit error, sum(packetBytes)"
scalar University.CCTV.eth[0].mac 	"simulated time" 	5400.0009852062
scalar University.CCTV.eth[0].mac 	full-duplex 	1
scalar University.CCTV.eth[0].mac 	"frames/sec sent" 	175.00830140384
scalar University.CCTV.eth[0].mac 	"frames/sec rcvd" 	0.0085185169643526
scalar University.CCTV.eth[0].mac 	"bits/sec sent" 	2102803.8830194
scalar University.CCTV.eth[0].mac 	"bits/sec rcvd" 	4.3614806857485
scalar University.CCTV.eth[0].mac 	"rx channel idle (%)" 	99.999995093334
scalar University.CCTV.eth[0].mac 	"rx channel utilization (%)" 	4.9066657714671e-06
scalar University.CCTV.eth[0].mac 	rxPkFromHL:count 	945045
attr interpolationmode  none
attr source  rxPkFromHL
attr title  "packet bytes from higher layer, count"
scalar University.CCTV.eth[0].mac 	rxPkFromHL:sum(packetBytes) 	1419392880
attr interpolationmode  none
attr source  rxPkFromHL
attr title  "packet bytes from higher layer, sum(packetBytes)"
scalar University.CCTV.eth[0].mac 	rxPausePkUnits:count 	0
attr interpolationmode  none
attr title  "pause units received, count"
scalar University.CCTV.eth[0].mac 	rxPausePkUnits:sum 	0
attr interpolationmode  none
attr title  "pause units received, sum"
scalar University.CCTV.eth[0].mac 	txPausePkUnits:count 	0
attr interpolationmode  none
attr title  "pause units sent, count"
scalar University.CCTV.eth[0].mac 	txPausePkUnits:sum 	0
attr interpolationmode  none
attr title  "pause units sent, sum"
scalar University.CCTV.eth[0].mac 	txPk:count 	945045
attr interpolationmode  none
attr source  txPk
attr title  "packets transmitted, count"
scalar University.CCTV.eth[0].mac 	txPk:sum(packetBytes) 	1419392880
attr interpolationmode  none
attr source  txPk
attr title  "packets transmitted, sum(packetBytes)"
scalar University.CCTV.eth[0].mac 	droppedPkNotForUs:count 	0
attr interpolationmode  none
attr source  dropPkNotForUs
attr title  "packets dropped/not for us, count"
scalar University.CCTV.eth[0].mac 	droppedPkNotForUs:sum(packetBytes) 	0
attr interpolationmode  none
attr source  dropPkNotForUs
attr title  "packets dropped/not for us, sum(packetBytes)"
scalar University.CCTV.eth[0].mac 	passedUpPk:count 	46
attr interpolationmode  none
attr source  packetSentToUpper
attr title  "packets passed to higher layer, count"
scalar University.CCTV.eth[0].mac 	passedUpPk:sum(packetBytes) 	2944
attr interpolationmode  none
attr source  packetSentToUpper
attr title  "packets passed to higher layer, sum(packetBytes)"
scalar University.CCTV.eth[0].mac 	droppedPkBitError:count 	0
attr interpolationmode  none
attr source  dropPkBitError
attr title  "packets dropped/bit error, count"
scalar University.CCTV.eth[0].mac 	droppedPkBitError:sum(packetBytes) 	0
attr interpolationmode  none
attr source  dropPkBitError
attr title  "packets dropped/bit error, sum(packetBytes)"
scalar University.CCTV.eth[0].mac 	droppedPkIfaceDown:count 	0
attr interpolationmode  none
attr source  dropPkIfaceDown
attr title  "packets dropped/interface down, count"
scalar University.CCTV.eth[0].mac 	droppedPkIfaceDown:sum(packetBytes) 	0
attr interpolationmode  none
attr source  dropPkIfaceDown
attr title  "packets dropped/interface down, sum(packetBytes)"
scalar University.CCTV.eth[0].mac 	rxPkOk:count 	46
attr interpolationmode  none
attr source  rxPkOk
attr title  "packets received OK, count"
scalar University.CCTV.eth[0].mac 	rxPkOk:sum(packetBytes) 	2944
attr interpolationmode  none
attr source  rxPkOk
attr title  "packets received OK, sum(packetBytes)"
scalar University.CCTV.eth[0].encap 	pauseSent:count 	0
attr title  "pause sent, count"
scalar University.CCTV.eth[0].encap 	pauseSent:sum 	0
attr title  "pause sent, sum"
scalar University.CCTV.eth[0].encap 	decapPk:count 	46
attr interpolationmode  none
attr source  decapPk
attr title  "packets decapsulated, count"
scalar University.CCTV.eth[0].encap 	decapPk:sum(packetBytes) 	1288
attr interpolationmode  none
attr source  decapPk
attr title  "packets decapsulated, sum(packetBytes)"
scalar University.CCTV.eth[0].encap 	encapPk:count 	945045
attr interpolationmode  none
attr source  encapPk
attr title  "packets encapsulated, count"
scalar University.CCTV.eth[0].encap 	encapPk:sum(packetBytes) 	1402381260
attr interpolationmode  none
attr source  encapPk
attr title  "packets encapsulated, sum(packetBytes)"
scalar University.CCTV.udpApp[0] 	reqStreamBytes:count 	1
attr interpolationmode  none
attr title  "requested stream bytes, count"
scalar University.CCTV.udpApp[0] 	reqStreamBytes:sum 	1433600000
attr interpolationmode  none
attr title  "requested stream bytes, sum"
scalar University.CCTV.udpApp[0] 	sentPk:count 	135000
attr interpolationmode  none
attr source  sentPk
attr title  "packets sent, count"
scalar University.CCTV.udpApp[0] 	sentPk:sum(packetBytes) 	1382400000
attr interpolationmode  none
attr source  sentPk
attr title  "packets sent, sum(packetBytes)"
scalar University.CCTV.udp 	droppedPkBadChecksum:count 	0
attr interpolationmode  none
attr title  "packets dropped (checksum error), count"
scalar University.CCTV.udp 	droppedPkWrongPort:count 	0
attr interpolationmode  none
attr title  "packets dropped (wrong port), count"
scalar University.CCTV.udp 	passedUpPk:count 	1
attr interpolationmode  none
attr title  "packets passed up, count"
scalar University.CCTV.udp 	sentPk:count 	135000
attr interpolationmode  none
attr source  sentPk
attr title  "packets sent, count"
scalar University.CCTV.udp 	sentPk:sum(packetBytes) 	1383480000
attr interpolationmode  none
attr source  sentPk
attr title  "packets sent, sum(packetBytes)"
scalar University.CCTV.udp 	rcvdPk:count 	1
attr interpolationmode  none
attr source  rcvdPk
attr title  "packets received, count"
scalar University.CCTV.udp 	rcvdPk:sum(packetBytes) 	8
attr interpolationmode  none
attr source  rcvdPk
attr title  "packets received, sum(packetBytes)"
scalar University.whttpStudents[0].networkLayer.arp 	initiatedARPResolution:count 	1
attr title  "ARP initiated resolutions, count"
scalar University.whttpStudents[0].networkLayer.arp 	sentReply:count 	41
attr title  "ARP replies sent, count"
scalar University.whttpStudents[0].networkLayer.arp 	sentReq:count 	1
attr title  "ARP request sent, count"
scalar University.whttpStudents[0].networkLayer.arp 	failedARPResolution:count 	0
attr title  "ARP failed resolutions, count"
scalar University.whttpStudents[0].networkLayer.arp 	completedARPResolution:count 	495
attr title  "ARP completed resolutions, count"
scalar University.whttpStudents[0].lo0.lo 	rcvdPkFromHL:count 	0
attr interpolationmode  none
attr source  packetReceivedFromUpper
attr title  "packets received from higher layer, count"
scalar University.whttpStudents[0].lo0.lo 	rcvdPkFromHL:sum(packetBytes) 	0
attr interpolationmode  none
attr source  packetReceivedFromUpper
attr title  "packets received from higher layer, sum(packetBytes)"
scalar University.whttpStudents[0].lo0.lo 	passedUpPk:count 	0
attr interpolationmode  none
attr source  packetSentToUpper
attr title  "packets passed to higher layer, count"
scalar University.whttpStudents[0].lo0.lo 	passedUpPk:sum(packetBytes) 	0
attr interpolationmode  none
attr source  packetSentToUpper
attr title  "packets passed to higher layer, sum(packetBytes)"
scalar University.whttpStudents[0].lo0.lo 	droppedPkBitError:count 	0
attr interpolationmode  none
attr source  dropPkBitError
attr title  "packets dropped/bit error, count"
scalar University.whttpStudents[0].lo0.lo 	droppedPkBitError:sum(packetBytes) 	0
attr interpolationmode  none
attr source  dropPkBitError
attr title  "packets dropped/bit error, sum(packetBytes)"
scalar University.whttpStudents[0].wlan[0].agent 	dropConfirm:count 	0
attr title  "dropped confirms, count"
scalar University.whttpStudents[0].wlan[0].agent 	acceptConfirm:count 	3
attr title  "accepted confirms, count"
scalar University.whttpStudents[0].wlan[0].agent 	sentRequest:count 	3
attr title  "sent requests, count"
scalar University.whttpStudents[0].wlan[0].mgmt 	dropPkByQueue:count 	0
attr interpolationmode  none
attr source  dropPkByQueue
attr title  "packets dropped by queue, count"
scalar University.whttpStudents[0].wlan[0].mgmt 	dropPkByQueue:sum(packetBytes) 	0
attr interpolationmode  none
attr source  dropPkByQueue
attr title  "packets dropped by queue, sum(packetBytes)"
scalar University.whttpStudents[0].wlan[0].mgmt 	dataQueueLen:max 	11
attr interpolationmode  sample-hold
attr title  "data queue length, max"
scalar University.whttpStudents[0].wlan[0].mgmt 	dataQueueLen:timeavg 	0.003477037688822
attr interpolationmode  sample-hold
attr title  "data queue length, timeavg"
scalar University.whttpStudents[0].wlan[0].mac 	"number of received packets" 	105313
scalar University.whttpStudents[0].wlan[0].mac 	"number of collisions" 	102204
scalar University.whttpStudents[0].wlan[0].mac 	"number of internal collisions" 	0
scalar University.whttpStudents[0].wlan[0].mac 	"number of retry for AC 0" 	7624
scalar University.whttpStudents[0].wlan[0].mac 	"sent and received bits" 	69259160
scalar University.whttpStudents[0].wlan[0].mac 	"sent packet within AC 0" 	105562
scalar University.whttpStudents[0].wlan[0].mac 	"sent in TXOP " 	0
scalar University.whttpStudents[0].wlan[0].mac 	"sentWithoutRetry AC 0" 	97976
scalar University.whttpStudents[0].wlan[0].mac 	"numGivenUp AC 0" 	0
scalar University.whttpStudents[0].wlan[0].mac 	"numDropped AC 0" 	0
scalar University.whttpStudents[0].wlan[0].mac 	rcvdPkFromHL:count 	105563
attr interpolationmode  none
attr source  packetReceivedFromUpper
attr title  "packets received from higher layer, count"
scalar University.whttpStudents[0].wlan[0].mac 	rcvdPkFromHL:sum(packetBytes) 	8657395
attr interpolationmode  none
attr source  packetReceivedFromUpper
attr title  "packets received from higher layer, sum(packetBytes)"
scalar University.whttpStudents[0].wlan[0].mac 	passedUpPk:count 	159206
attr interpolationmode  none
attr source  packetSentToUpper
attr title  "packets passed to higher layer, count"
scalar University.whttpStudents[0].wlan[0].mac 	passedUpPk:sum(packetBytes) 	165139535
attr interpolationmode  none
attr source  packetSentToUpper
attr title  "packets passed to higher layer, sum(packetBytes)"
scalar University.whttpStudents[0].wlan[0].mac 	rcvdPkFromLL:count 	6044758
attr interpolationmode  none
attr source  packetReceivedFromLower
attr title  "packets received from lower layer, count"
scalar University.whttpStudents[0].wlan[0].mac 	rcvdPkFromLL:sum(packetBytes) 	2747774038
attr interpolationmode  none
attr source  packetReceivedFromLower
attr title  "packets received from lower layer, sum(packetBytes)"
scalar University.whttpStudents[0].wlan[0].mac 	sentDownPk:count 	218500
attr interpolationmode  none
attr source  packetSentToLower
attr title  "packets sent to lower layer, count"
scalar University.whttpStudents[0].wlan[0].mac 	sentDownPk:sum(packetBytes) 	10757042
attr interpolationmode  none
attr source  packetSentToLower
attr title  "packets sent to lower layer, sum(packetBytes)"
scalar University.whttpStudents[0].wlan[0].radio 	lossRate:min 	0
attr interpolationmode  backward-sample-hold
attr title  "packet loss rate, min"
scalar University.whttpStudents[0].wlan[0].radio 	lossRate:max 	0.16
attr interpolationmode  backward-sample-hold
attr title  "packet loss rate, max"
scalar University.whttpStudents[0].wlan[0].radio 	lossRate:timeavg 	0.0091537437655223
attr interpolationmode  backward-sample-hold
attr title  "packet loss rate, timeavg"
statistic University.whttpStudents[0].wlan[0].radio 	channelNo:histogram
field count 1
field mean 0
field stddev -nan
field sum 0
field sqrsum 0
field min 0
field max 0
attr interpolationmode  sample-hold
attr title  "channel no, histogram"
bin	-INF	0
bin	-0.5	0
bin	-0.46666666666667	0
bin	-0.43333333333333	0
bin	-0.4	0
bin	-0.36666666666667	0
bin	-0.33333333333333	0
bin	-0.3	0
bin	-0.26666666666667	0
bin	-0.23333333333333	0
bin	-0.2	0
bin	-0.16666666666667	0
bin	-0.13333333333333	0
bin	-0.1	0
bin	-0.066666666666667	0
bin	-0.033333333333333	0
bin	0	1
bin	0.033333333333333	0
bin	0.066666666666667	0
bin	0.1	0
bin	0.13333333333333	0
bin	0.16666666666667	0
bin	0.2	0
bin	0.23333333333333	0
bin	0.26666666666667	0
bin	0.3	0
bin	0.33333333333333	0
bin	0.36666666666667	0
bin	0.4	0
bin	0.43333333333333	0
bin	0.46666666666667	0
bin	0.5	0
scalar University.whttpStudents[0].wlan[0].radio 	radioState:count 	12536567
attr interpolationmode  sample-hold
attr title  "radio state (enum), count"
scalar University.whttpStudents[0].wlan[0].radio 	bitrate:min 	54000000
attr interpolationmode  sample-hold
attr title  "tx bitrate, min"
attr unit  bps
scalar University.whttpStudents[0].wlan[0].radio 	bitrate:max 	54000000
attr interpolationmode  sample-hold
attr title  "tx bitrate, max"
attr unit  bps
scalar University.whttpStudents[0].wlan[0].radio 	bitrate:timeavg 	54000000
attr interpolationmode  sample-hold
attr title  "tx bitrate, timeavg"
attr unit  bps
scalar University.whttpStudents[0].tcpApp[0] 	numActiveSessions:max 	1
attr interpolationmode  sample-hold
attr source  sum(connect)
attr title  "number of active sessions, max"
scalar University.whttpStudents[0].tcpApp[0] 	numActiveSessions:timeavg 	0.37554089563502
attr interpolationmode  sample-hold
attr source  sum(connect)
attr title  "number of active sessions, timeavg"
scalar University.whttpStudents[0].tcpApp[0] 	numSessions:last 	205
attr source  sum(connect+1)/2
attr title  "total number of sessions, last"
scalar University.whttpStudents[0].tcpApp[0] 	sentPk:count 	205
attr interpolationmode  none
attr source  sentPk
attr title  "packets sent, count"
scalar University.whttpStudents[0].tcpApp[0] 	sentPk:sum(packetBytes) 	205
attr interpolationmode  none
attr source  sentPk
attr title  "packets sent, sum(packetBytes)"
scalar University.whttpStudents[0].tcpApp[0] 	rcvdPk:count 	205
attr interpolationmode  none
attr source  rcvdPk
attr title  "packets received, count"
scalar University.whttpStudents[0].tcpApp[0] 	rcvdPk:sum(packetBytes) 	149089867
attr interpolationmode  none
attr source  rcvdPk
attr title  "packets received, sum(packetBytes)"
statistic University.whttpStudents[0].tcpApp[0] 	endToEndDelay:histogram
field count 205
field mean 9.5451743771785
field stddev 12.483921603845
field sum 1956.7607473216
field sqrsum 50470.675464237
field min 0.218978481788
field max 66.277130552844
attr interpolationmode  none
attr source  messageAge(rcvdPk)
attr title  "end-to-end delay, histogram"
attr unit  s
bin	-INF	0
bin	-26.41344502655	0
bin	-22.746507510231	0
bin	-19.079569993913	0
bin	-15.412632477594	0
bin	-11.745694961276	0
bin	-8.0787574449573	0
bin	-4.4118199286388	0
bin	-0.74488241232027	98
bin	2.9220551039983	27
bin	6.5889926203168	20
bin	10.255930136635	16
bin	13.922867652954	9
bin	17.589805169272	10
bin	21.256742685591	2
bin	24.923680201909	3
bin	28.590617718228	2
bin	32.257555234547	4
bin	35.924492750865	4
bin	39.591430267184	4
bin	43.258367783502	2
bin	46.925305299821	1
bin	50.592242816139	0
bin	54.259180332458	2
bin	57.926117848776	0
bin	61.593055365095	0
bin	65.259992881413	1
bin	68.926930397732	0
bin	72.59386791405	0
bin	76.260805430369	0
bin	79.927742946687	0
bin	83.594680463006	0
scalar University.whttpStudents[1].networkLayer.arp 	initiatedARPResolution:count 	1
attr title  "ARP initiated resolutions, count"
scalar University.whttpStudents[1].networkLayer.arp 	sentReply:count 	41
attr title  "ARP replies sent, count"
scalar University.whttpStudents[1].networkLayer.arp 	sentReq:count 	1
attr title  "ARP request sent, count"
scalar University.whttpStudents[1].networkLayer.arp 	failedARPResolution:count 	0
attr title  "ARP failed resolutions, count"
scalar University.whttpStudents[1].networkLayer.arp 	completedARPResolution:count 	495
attr title  "ARP completed resolutions, count"
scalar University.whttpStudents[1].lo0.lo 	rcvdPkFromHL:count 	0
attr interpolationmode  none
attr source  packetReceivedFromUpper
attr title  "packets received from higher layer, count"
scalar University.whttpStudents[1].lo0.lo 	rcvdPkFromHL:sum(packetBytes) 	0
attr interpolationmode  none
attr source  packetReceivedFromUpper
attr title  "packets received from higher layer, sum(packetBytes)"
scalar University.whttpStudents[1].lo0.lo 	passedUpPk:count 	0
attr interpolationmode  none
attr source  packetSentToUpper
attr title  "packets passed to higher layer, count"
scalar University.whttpStudents[1].lo0.lo 	passedUpPk:sum(packetBytes) 	0
attr interpolationmode  none
attr source  packetSentToUpper
attr title  "packets passed to higher layer, sum(packetBytes)"
scalar University.whttpStudents[1].lo0.lo 	droppedPkBitError:count 	0
attr interpolationmode  none
attr source  dropPkBitError
attr title  "packets dropped/bit error, count"
scalar University.whttpStudents[1].lo0.lo 	droppedPkBitError:sum(packetBytes) 	0
attr interpolationmode  none
attr source  dropPkBitError
attr title  "packets dropped/bit error, sum(packetBytes)"
scalar University.whttpStudents[1].wlan[0].agent 	dropConfirm:count 	0
attr title  "dropped confirms, count"
scalar University.whttpStudents[1].wlan[0].agent 	acceptConfirm:count 	3
attr title  "accepted confirms, count"
scalar University.whttpStudents[1].wlan[0].agent 	sentRequest:count 	3
attr title  "sent requests, count"
scalar University.whttpStudents[1].wlan[0].mgmt 	dropPkByQueue:count 	0
attr interpolationmode  none
attr source  dropPkByQueue
attr title  "packets dropped by queue, count"
scalar University.whttpStudents[1].wlan[0].mgmt 	dropPkByQueue:sum(packetBytes) 	0
attr interpolationmode  none
attr source  dropPkByQueue
attr title  "packets dropped by queue, sum(packetBytes)"
scalar University.whttpStudents[1].wlan[0].mgmt 	dataQueueLen:max 	9
attr interpolationmode  sample-hold
attr title  "data queue length, max"
scalar University.whttpStudents[1].wlan[0].mgmt 	dataQueueLen:timeavg 	0.0039619759474907
attr interpolationmode  sample-hold
attr title  "data queue length, timeavg"
scalar University.whttpStudents[1].wlan[0].mac 	"number of received packets" 	127236
scalar University.whttpStudents[1].wlan[0].mac 	"number of collisions" 	100782
scalar University.whttpStudents[1].wlan[0].mac 	"number of internal collisions" 	0
scalar University.whttpStudents[1].wlan[0].mac 	"number of retry for AC 0" 	8953
scalar University.whttpStudents[1].wlan[0].mac 	"sent and received bits" 	83635240
scalar University.whttpStudents[1].wlan[0].mac 	"sent packet within AC 0" 	127478
scalar University.whttpStudents[1].wlan[0].mac 	"sent in TXOP " 	0
scalar University.whttpStudents[1].wlan[0].mac 	"sentWithoutRetry AC 0" 	118573
scalar University.whttpStudents[1].wlan[0].mac 	"numGivenUp AC 0" 	0
scalar University.whttpStudents[1].wlan[0].mac 	"numDropped AC 0" 	0
scalar University.whttpStudents[1].wlan[0].mac 	rcvdPkFromHL:count 	127479
attr interpolationmode  none
attr source  packetReceivedFromUpper
attr title  "packets received from higher layer, count"
scalar University.whttpStudents[1].wlan[0].mac 	rcvdPkFromHL:sum(packetBytes) 	10454405
attr interpolationmode  none
attr source  packetReceivedFromUpper
attr title  "packets received from higher layer, sum(packetBytes)"
scalar University.whttpStudents[1].wlan[0].mac 	passedUpPk:count 	181139
attr interpolationmode  none
attr source  packetSentToUpper
attr title  "packets passed to higher layer, count"
scalar University.whttpStudents[1].wlan[0].mac 	passedUpPk:sum(packetBytes) 	198985419
attr interpolationmode  none
attr source  packetSentToUpper
attr title  "packets passed to higher layer, sum(packetBytes)"
scalar University.whttpStudents[1].wlan[0].mac 	rcvdPkFromLL:count 	5999590
attr interpolationmode  none
attr source  packetReceivedFromLower
attr title  "packets received from lower layer, count"
scalar University.whttpStudents[1].wlan[0].mac 	rcvdPkFromLL:sum(packetBytes) 	2745813041
attr interpolationmode  none
attr source  packetReceivedFromLower
[...]
attr title  "packets sent, count"
scalar University.whostVideoConf.udpApp[0] 	sentPk:sum(packetBytes) 	189000000
attr interpolationmode  none
attr source  sentPk
attr title  "packets sent, sum(packetBytes)"
scalar University.whostVideoConf.udpApp[0] 	rcvdPk:count 	134586
attr interpolationmode  none
attr source  rcvdPk
attr title  "packets received, count"
scalar University.whostVideoConf.udpApp[0] 	rcvdPk:sum(packetBytes) 	188420400
attr interpolationmode  none
attr source  rcvdPk
attr title  "packets received, sum(packetBytes)"
statistic University.whostVideoConf.udpApp[0] 	rcvdPkLifetime:stats
field count 134586
field mean 0.025812573525334
field stddev 0.030376951841657
field sum 3474.0110204807
field sqrsum 213.86271225535
field min 0.016320125083
field max 1.076974059259
attr interpolationmode  none
attr source  messageAge(rcvdPk)
attr title  "received packet lifetime, stats"
attr unit  s
scalar University.whostVideoConf.udp 	droppedPkBadChecksum:count 	0
attr interpolationmode  none
attr title  "packets dropped (checksum error), count"
scalar University.whostVideoConf.udp 	droppedPkWrongPort:count 	0
attr interpolationmode  none
attr title  "packets dropped (wrong port), count"
scalar University.whostVideoConf.udp 	passedUpPk:count 	134586
attr interpolationmode  none
attr title  "packets passed up, count"
scalar University.whostVideoConf.udp 	sentPk:count 	135000
attr interpolationmode  none
attr source  sentPk
attr title  "packets sent, count"
scalar University.whostVideoConf.udp 	sentPk:sum(packetBytes) 	190080000
attr interpolationmode  none
attr source  sentPk
attr title  "packets sent, sum(packetBytes)"
scalar University.whostVideoConf.udp 	rcvdPk:count 	134586
attr interpolationmode  none
attr source  rcvdPk
attr title  "packets received, count"
scalar University.whostVideoConf.udp 	rcvdPk:sum(packetBytes) 	189497088
attr interpolationmode  none
attr source  rcvdPk
attr title  "packets received, sum(packetBytes)"
scalar University.whostFTP.networkLayer.arp 	initiatedARPResolution:count 	1
attr title  "ARP initiated resolutions, count"
scalar University.whostFTP.networkLayer.arp 	sentReply:count 	44
attr title  "ARP replies sent, count"
scalar University.whostFTP.networkLayer.arp 	sentReq:count 	2
attr title  "ARP request sent, count"
scalar University.whostFTP.networkLayer.arp 	failedARPResolution:count 	0
attr title  "ARP failed resolutions, count"
scalar University.whostFTP.networkLayer.arp 	completedARPResolution:count 	495
attr title  "ARP completed resolutions, count"
scalar University.whostFTP.lo0.lo 	rcvdPkFromHL:count 	0
attr interpolationmode  none
attr source  packetReceivedFromUpper
attr title  "packets received from higher layer, count"
scalar University.whostFTP.lo0.lo 	rcvdPkFromHL:sum(packetBytes) 	0
attr interpolationmode  none
attr source  packetReceivedFromUpper
attr title  "packets received from higher layer, sum(packetBytes)"
scalar University.whostFTP.lo0.lo 	passedUpPk:count 	0
attr interpolationmode  none
attr source  packetSentToUpper
attr title  "packets passed to higher layer, count"
scalar University.whostFTP.lo0.lo 	passedUpPk:sum(packetBytes) 	0
attr interpolationmode  none
attr source  packetSentToUpper
attr title  "packets passed to higher layer, sum(packetBytes)"
scalar University.whostFTP.lo0.lo 	droppedPkBitError:count 	0
attr interpolationmode  none
attr source  dropPkBitError
attr title  "packets dropped/bit error, count"
scalar University.whostFTP.lo0.lo 	droppedPkBitError:sum(packetBytes) 	0
attr interpolationmode  none
attr source  dropPkBitError
attr title  "packets dropped/bit error, sum(packetBytes)"
scalar University.whostFTP.wlan[0].agent 	dropConfirm:count 	0
attr title  "dropped confirms, count"
scalar University.whostFTP.wlan[0].agent 	acceptConfirm:count 	3
attr title  "accepted confirms, count"
scalar University.whostFTP.wlan[0].agent 	sentRequest:count 	3
attr title  "sent requests, count"
scalar University.whostFTP.wlan[0].mgmt 	dropPkByQueue:count 	36216
attr interpolationmode  none
attr source  dropPkByQueue
attr title  "packets dropped by queue, count"
scalar University.whostFTP.wlan[0].mgmt 	dropPkByQueue:sum(packetBytes) 	55737984
attr interpolationmode  none
attr source  dropPkByQueue
attr title  "packets dropped by queue, sum(packetBytes)"
scalar University.whostFTP.wlan[0].mgmt 	dataQueueLen:max 	50
attr interpolationmode  sample-hold
attr title  "data queue length, max"
scalar University.whostFTP.wlan[0].mgmt 	dataQueueLen:timeavg 	0.65834692838883
attr interpolationmode  sample-hold
attr title  "data queue length, timeavg"
scalar University.whostFTP.wlan[0].mac 	"number of received packets" 	227728
scalar University.whostFTP.wlan[0].mac 	"number of collisions" 	85919
scalar University.whostFTP.wlan[0].mac 	"number of internal collisions" 	0
scalar University.whostFTP.wlan[0].mac 	"number of retry for AC 0" 	23866
scalar University.whostFTP.wlan[0].mac 	"sent and received bits" 	2880353936
scalar University.whostFTP.wlan[0].mac 	"sent packet within AC 0" 	235325
scalar University.whostFTP.wlan[0].mac 	"sent in TXOP " 	0
scalar University.whostFTP.wlan[0].mac 	"sentWithoutRetry AC 0" 	215058
scalar University.whostFTP.wlan[0].mac 	"numGivenUp AC 0" 	1
scalar University.whostFTP.wlan[0].mac 	"numDropped AC 0" 	0
scalar University.whostFTP.wlan[0].mac 	rcvdPkFromHL:count 	235327
attr interpolationmode  none
attr source  packetReceivedFromUpper
attr title  "packets received from higher layer, count"
scalar University.whostFTP.wlan[0].mac 	rcvdPkFromHL:sum(packetBytes) 	360045784
attr interpolationmode  none
attr source  packetReceivedFromUpper
attr title  "packets received from higher layer, sum(packetBytes)"
scalar University.whostFTP.wlan[0].mac 	passedUpPk:count 	281653
attr interpolationmode  none
attr source  packetSentToUpper
attr title  "packets passed to higher layer, count"
scalar University.whostFTP.wlan[0].mac 	passedUpPk:sum(packetBytes) 	22877823
attr interpolationmode  none
attr source  packetSentToUpper
attr title  "packets passed to higher layer, sum(packetBytes)"
scalar University.whostFTP.wlan[0].mac 	rcvdPkFromLL:count 	5776337
attr interpolationmode  none
attr source  packetReceivedFromLower
attr title  "packets received from lower layer, count"
scalar University.whostFTP.wlan[0].mac 	rcvdPkFromLL:sum(packetBytes) 	2377985937
attr interpolationmode  none
attr source  packetReceivedFromLower
attr title  "packets received from lower layer, sum(packetBytes)"
scalar University.whostFTP.wlan[0].mac 	sentDownPk:count 	486921
attr interpolationmode  none
attr source  packetSentToLower
attr title  "packets sent to lower layer, count"
scalar University.whostFTP.wlan[0].mac 	sentDownPk:sum(packetBytes) 	399970518
attr interpolationmode  none
attr source  packetSentToLower
attr title  "packets sent to lower layer, sum(packetBytes)"
scalar University.whostFTP.wlan[0].radio 	lossRate:min 	0
attr interpolationmode  backward-sample-hold
attr title  "packet loss rate, min"
scalar University.whostFTP.wlan[0].radio 	lossRate:max 	0.18
attr interpolationmode  backward-sample-hold
attr title  "packet loss rate, max"
scalar University.whostFTP.wlan[0].radio 	lossRate:timeavg 	0.007890227590181
attr interpolationmode  backward-sample-hold
attr title  "packet loss rate, timeavg"
statistic University.whostFTP.wlan[0].radio 	channelNo:histogram
field count 1
field mean 0
field stddev -nan
field sum 0
field sqrsum 0
field min 0
field max 0
attr interpolationmode  sample-hold
attr title  "channel no, histogram"
bin	-INF	0
bin	-0.5	0
bin	-0.46666666666667	0
bin	-0.43333333333333	0
bin	-0.4	0
bin	-0.36666666666667	0
bin	-0.33333333333333	0
bin	-0.3	0
bin	-0.26666666666667	0
bin	-0.23333333333333	0
bin	-0.2	0
bin	-0.16666666666667	0
bin	-0.13333333333333	0
bin	-0.1	0
bin	-0.066666666666667	0
bin	-0.033333333333333	0
bin	0	1
bin	0.033333333333333	0
bin	0.066666666666667	0
bin	0.1	0
bin	0.13333333333333	0
bin	0.16666666666667	0
bin	0.2	0
bin	0.23333333333333	0
bin	0.26666666666667	0
bin	0.3	0
bin	0.33333333333333	0
bin	0.36666666666667	0
bin	0.4	0
bin	0.43333333333333	0
bin	0.46666666666667	0
bin	0.5	0
scalar University.whostFTP.wlan[0].radio 	radioState:count 	12542392
attr interpolationmode  sample-hold
attr title  "radio state (enum), count"
scalar University.whostFTP.wlan[0].radio 	bitrate:min 	54000000
attr interpolationmode  sample-hold
attr title  "tx bitrate, min"
attr unit  bps
scalar University.whostFTP.wlan[0].radio 	bitrate:max 	54000000
attr interpolationmode  sample-hold
attr title  "tx bitrate, max"
attr unit  bps
scalar University.whostFTP.wlan[0].radio 	bitrate:timeavg 	54000000
attr interpolationmode  sample-hold
attr title  "tx bitrate, timeavg"
attr unit  bps
scalar University.whostFTP.tcpApp[0] 	numActiveSessions:max 	1
attr interpolationmode  sample-hold
attr source  sum(connect)
attr title  "number of active sessions, max"
scalar University.whostFTP.tcpApp[0] 	numActiveSessions:timeavg 	0.98463272351231
attr interpolationmode  sample-hold
attr source  sum(connect)
attr title  "number of active sessions, timeavg"
scalar University.whostFTP.tcpApp[0] 	numSessions:last 	312
attr source  sum(connect+1)/2
attr title  "total number of sessions, last"
scalar University.whostFTP.tcpApp[0] 	sentPk:count 	312
attr interpolationmode  none
attr source  sentPk
attr title  "packets sent, count"
scalar University.whostFTP.tcpApp[0] 	sentPk:sum(packetBytes) 	327155712
attr interpolationmode  none
attr source  sentPk
attr title  "packets sent, sum(packetBytes)"
scalar University.whostFTP.tcpApp[0] 	rcvdPk:count 	311
attr interpolationmode  none
attr source  rcvdPk
attr title  "packets received, count"
scalar University.whostFTP.tcpApp[0] 	rcvdPk:sum(packetBytes) 	311
attr interpolationmode  none
attr source  rcvdPk
attr title  "packets received, sum(packetBytes)"
statistic University.whostFTP.tcpApp[0] 	endToEndDelay:histogram
field count 311
field mean 16.774984456715
field stddev 7.175904776756
field sum 5217.0201660384
field sqrsum 103478.45109883
field min 4.740532790235
field max 54.014797450408
attr interpolationmode  none
attr source  messageAge(rcvdPk)
attr title  "end-to-end delay, histogram"
attr unit  s
bin	-INF	0
bin	-10.412333137917	0
bin	-8.3919510141634	0
bin	-6.3715688904098	0
bin	-4.3511867666562	0
bin	-2.3308046429026	0
bin	-0.310422519149	0
bin	1.7099596046046	0
bin	3.7303417283582	1
bin	5.7507238521118	19
bin	7.7711059758654	19
bin	9.791488099619	32
bin	11.811870223373	35
bin	13.832252347126	57
bin	15.85263447088	56
bin	17.873016594633	25
bin	19.893398718387	13
bin	21.913780842141	9
bin	23.934162965894	6
bin	25.954545089648	14
bin	27.974927213401	6
bin	29.995309337155	4
bin	32.015691460909	5
bin	34.036073584662	3
bin	36.056455708416	3
bin	38.076837832169	1
bin	40.097219955923	1
bin	42.117602079677	1
bin	44.13798420343	0
bin	46.158366327184	0
bin	48.178748450937	0
bin	50.199130574691	1
scalar University.accessPoint.relayUnit 	"number of received BPDUs from STP module" 	0
scalar University.accessPoint.relayUnit 	"number of received frames from network (including BPDUs)" 	3063557
scalar University.accessPoint.relayUnit 	"number of dropped frames (including BPDUs)" 	0
scalar University.accessPoint.relayUnit 	"number of delivered BPDUs to the STP module" 	0
scalar University.accessPoint.relayUnit 	"number of dispatched BPDU frames to the network" 	0
scalar University.accessPoint.relayUnit 	"number of dispatched non-BDPU frames to the network" 	3063557
scalar University.accessPoint.wlan[0].mgmt 	dropPkByQueue:count 	13365
attr interpolationmode  none
attr source  dropPkByQueue
attr title  "packets dropped by queue, count"
scalar University.accessPoint.wlan[0].mgmt 	dropPkByQueue:sum(packetBytes) 	9909277
attr interpolationmode  none
attr source  dropPkByQueue
attr title  "packets dropped by queue, sum(packetBytes)"
scalar University.accessPoint.wlan[0].mgmt 	dataQueueLen:max 	50
attr interpolationmode  sample-hold
attr title  "data queue length, max"
scalar University.accessPoint.wlan[0].mgmt 	dataQueueLen:timeavg 	2.2469361826037
attr interpolationmode  sample-hold
attr title  "data queue length, timeavg"
scalar University.accessPoint.wlan[0].mac 	"number of received packets" 	1530082
scalar University.accessPoint.wlan[0].mac 	"number of collisions" 	5463
scalar University.accessPoint.wlan[0].mac 	"number of internal collisions" 	0
scalar University.accessPoint.wlan[0].mac 	"number of retry for AC 0" 	103723
scalar University.accessPoint.wlan[0].mac 	"sent and received bits" 	15932613368
scalar University.accessPoint.wlan[0].mac 	"sent packet within AC 0" 	1519686
scalar University.accessPoint.wlan[0].mac 	"sent in TXOP " 	0
scalar University.accessPoint.wlan[0].mac 	"sentWithoutRetry AC 0" 	1420836
scalar University.accessPoint.wlan[0].mac 	"numGivenUp AC 0" 	0
scalar University.accessPoint.wlan[0].mac 	"numDropped AC 0" 	0
scalar University.accessPoint.wlan[0].mac 	rcvdPkFromHL:count 	1574206
attr interpolationmode  none
attr source  packetReceivedFromUpper
attr title  "packets received from higher layer, count"
scalar University.accessPoint.wlan[0].mac 	rcvdPkFromHL:sum(packetBytes) 	1991576671
attr interpolationmode  none
attr source  packetReceivedFromUpper
attr title  "packets received from higher layer, sum(packetBytes)"
scalar University.accessPoint.wlan[0].mac 	passedUpPk:count 	1530094
attr interpolationmode  none
attr source  packetSentToUpper
attr title  "packets passed to higher layer, count"
scalar University.accessPoint.wlan[0].mac 	passedUpPk:sum(packetBytes) 	653601010
attr interpolationmode  none
attr source  packetSentToUpper
attr title  "packets passed to higher layer, sum(packetBytes)"
scalar University.accessPoint.wlan[0].mac 	rcvdPkFromLL:count 	3055247
attr interpolationmode  none
attr source  packetReceivedFromLower
attr title  "packets received from lower layer, count"
scalar University.accessPoint.wlan[0].mac 	rcvdPkFromLL:sum(packetBytes) 	678003101
attr interpolationmode  none
attr source  packetReceivedFromLower
attr title  "packets received from lower layer, sum(packetBytes)"
scalar University.accessPoint.wlan[0].mac 	sentDownPk:count 	3208011
attr interpolationmode  none
attr source  packetSentToLower
attr title  "packets sent to lower layer, count"
scalar University.accessPoint.wlan[0].mac 	sentDownPk:sum(packetBytes) 	2146604606
attr interpolationmode  none
attr source  packetSentToLower
attr title  "packets sent to lower layer, sum(packetBytes)"
scalar University.accessPoint.wlan[0].radio 	lossRate:min 	0
attr interpolationmode  backward-sample-hold
attr title  "packet loss rate, min"
scalar University.accessPoint.wlan[0].radio 	lossRate:max 	0.08
attr interpolationmode  backward-sample-hold
attr title  "packet loss rate, max"
scalar University.accessPoint.wlan[0].radio 	lossRate:timeavg 	0.0011549079883743
attr interpolationmode  backward-sample-hold
attr title  "packet loss rate, timeavg"
statistic University.accessPoint.wlan[0].radio 	channelNo:histogram
field count 1
field mean 0
field stddev -nan
field sum 0
field sqrsum 0
field min 0
field max 0
attr interpolationmode  sample-hold
attr title  "channel no, histogram"
bin	-INF	0
bin	-0.5	0
bin	-0.46666666666667	0
bin	-0.43333333333333	0
bin	-0.4	0
bin	-0.36666666666667	0
bin	-0.33333333333333	0
bin	-0.3	0
bin	-0.26666666666667	0
bin	-0.23333333333333	0
bin	-0.2	0
bin	-0.16666666666667	0
bin	-0.13333333333333	0
bin	-0.1	0
bin	-0.066666666666667	0
bin	-0.033333333333333	0
bin	0	1
bin	0.033333333333333	0
bin	0.066666666666667	0
bin	0.1	0
bin	0.13333333333333	0
bin	0.16666666666667	0
bin	0.2	0
bin	0.23333333333333	0
bin	0.26666666666667	0
bin	0.3	0
bin	0.33333333333333	0
bin	0.36666666666667	0
bin	0.4	0
bin	0.43333333333333	0
bin	0.46666666666667	0
bin	0.5	0
scalar University.accessPoint.wlan[0].radio 	radioState:count 	12606122
attr interpolationmode  sample-hold
attr title  "radio state (enum), count"
scalar University.accessPoint.wlan[0].radio 	bitrate:min 	54000000
attr interpolationmode  sample-hold
attr title  "tx bitrate, min"
attr unit  bps
scalar University.accessPoint.wlan[0].radio 	bitrate:max 	54000000
attr interpolationmode  sample-hold
attr title  "tx bitrate, max"
attr unit  bps
scalar University.accessPoint.wlan[0].radio 	bitrate:timeavg 	54000000
attr interpolationmode  sample-hold
attr title  "tx bitrate, timeavg"
attr unit  bps
scalar University.accessPoint.eth[0].mac 	"simulated time" 	5400.0009852062
scalar University.accessPoint.eth[0].mac 	full-duplex 	1
scalar University.accessPoint.eth[0].mac 	"frames/sec sent" 	283.34180015739
scalar University.accessPoint.eth[0].mac 	"frames/sec rcvd" 	283.98346670698
scalar University.accessPoint.eth[0].mac 	"bits/sec sent" 	914364.32206714
scalar University.accessPoint.eth[0].mac 	"bits/sec rcvd" 	2906545.711195
scalar University.accessPoint.eth[0].mac 	"rx channel idle (%)" 	97.075279346937
scalar University.accessPoint.eth[0].mac 	"rx channel utilization (%)" 	2.924720653063
scalar University.accessPoint.eth[0].mac 	rxPkFromHL:count 	1530046
attr interpolationmode  none
attr source  rxPkFromHL
attr title  "packet bytes from higher layer, count"
scalar University.accessPoint.eth[0].mac 	rxPkFromHL:sum(packetBytes) 	617196030
attr interpolationmode  none
attr source  rxPkFromHL
attr title  "packet bytes from higher layer, sum(packetBytes)"
scalar University.accessPoint.eth[0].mac 	rxPausePkUnits:count 	0
attr interpolationmode  none
attr title  "pause units received, count"
scalar University.accessPoint.eth[0].mac 	rxPausePkUnits:sum 	0
attr interpolationmode  none
attr title  "pause units received, sum"
scalar University.accessPoint.eth[0].mac 	txPausePkUnits:count 	0
attr interpolationmode  none
attr title  "pause units sent, count"
scalar University.accessPoint.eth[0].mac 	txPausePkUnits:sum 	0
attr interpolationmode  none
attr title  "pause units sent, sum"
scalar University.accessPoint.eth[0].mac 	txPk:count 	1530046
attr interpolationmode  none
attr source  txPk
attr title  "packets transmitted, count"
scalar University.accessPoint.eth[0].mac 	txPk:sum(packetBytes) 	617196030
attr interpolationmode  none
attr source  txPk
attr title  "packets transmitted, sum(packetBytes)"
scalar University.accessPoint.eth[0].mac 	droppedPkNotForUs:count 	0
attr interpolationmode  none
attr source  dropPkNotForUs
attr title  "packets dropped/not for us, count"
scalar University.accessPoint.eth[0].mac 	droppedPkNotForUs:sum(packetBytes) 	0
attr interpolationmode  none
attr source  dropPkNotForUs
attr title  "packets dropped/not for us, sum(packetBytes)"
scalar University.accessPoint.eth[0].mac 	passedUpPk:count 	1533511
attr interpolationmode  none
attr source  packetSentToUpper
attr title  "packets passed to higher layer, count"
scalar University.accessPoint.eth[0].mac 	passedUpPk:sum(packetBytes) 	1961918713
attr interpolationmode  none
attr source  packetSentToUpper
attr title  "packets passed to higher layer, sum(packetBytes)"
scalar University.accessPoint.eth[0].mac 	droppedPkBitError:count 	0
attr interpolationmode  none
attr source  dropPkBitError
attr title  "packets dropped/bit error, count"
scalar University.accessPoint.eth[0].mac 	droppedPkBitError:sum(packetBytes) 	0
attr interpolationmode  none
attr source  dropPkBitError
attr title  "packets dropped/bit error, sum(packetBytes)"
scalar University.accessPoint.eth[0].mac 	droppedPkIfaceDown:count 	0
attr interpolationmode  none
attr source  dropPkIfaceDown
attr title  "packets dropped/interface down, count"
scalar University.accessPoint.eth[0].mac 	droppedPkIfaceDown:sum(packetBytes) 	0
attr interpolationmode  none
attr source  dropPkIfaceDown
attr title  "packets dropped/interface down, sum(packetBytes)"
scalar University.accessPoint.eth[0].mac 	rxPkOk:count 	1533511
attr interpolationmode  none
attr source  rxPkOk
attr title  "packets received OK, count"
scalar University.accessPoint.eth[0].mac 	rxPkOk:sum(packetBytes) 	1961918713
attr interpolationmode  none
attr source  rxPkOk
attr title  "packets received OK, sum(packetBytes)"
