version 2
run _8to13on-8-20160819-23:20:29-10509
attr configname _8to13on
attr datetime 20160819-23:20:29
attr experiment _8to13on
attr inifile omnetpp.ini
attr iterationvars $0=8
attr iterationvars2 "$0=8, $repetition=8"
attr measurement $0=8
attr network University
attr processid 10509
attr repetition 8
attr replication #8
attr resultdir results
attr runnumber 8
attr seedset 8

scalar University.remoteR.networkLayer.arp 	initiatedARPResolution:count 	420
attr title  "ARP initiated resolutions, count"
scalar University.remoteR.networkLayer.arp 	sentReply:count 	52
attr title  "ARP replies sent, count"
scalar University.remoteR.networkLayer.arp 	sentReq:count 	427
attr title  "ARP request sent, count"
scalar University.remoteR.networkLayer.arp 	failedARPResolution:count 	0
attr title  "ARP failed resolutions, count"
scalar University.remoteR.networkLayer.arp 	completedARPResolution:count 	472
attr title  "ARP completed resolutions, count"
scalar University.remoteR.lo0.lo 	rcvdPkFromHL:count 	0
attr interpolationmode  none
attr source  packetReceivedFromUpper
attr title  "packets received from higher layer, count"
scalar University.remoteR.lo0.lo 	rcvdPkFromHL:sum(packetBytes) 	0
attr interpolationmode  none
attr source  packetReceivedFromUpper
attr title  "packets received from higher layer, sum(packetBytes)"
scalar University.remoteR.lo0.lo 	passedUpPk:count 	0
attr interpolationmode  none
attr source  packetSentToUpper
attr title  "packets passed to higher layer, count"
scalar University.remoteR.lo0.lo 	passedUpPk:sum(packetBytes) 	0
attr interpolationmode  none
attr source  packetSentToUpper
attr title  "packets passed to higher layer, sum(packetBytes)"
scalar University.remoteR.lo0.lo 	droppedPkBitError:count 	0
attr interpolationmode  none
attr source  dropPkBitError
attr title  "packets dropped/bit error, count"
scalar University.remoteR.lo0.lo 	droppedPkBitError:sum(packetBytes) 	0
attr interpolationmode  none
attr source  dropPkBitError
attr title  "packets dropped/bit error, sum(packetBytes)"
scalar University.remoteR.eth[0].outputHook[0] 	duration 	5405.0001424942
scalar University.remoteR.eth[0].outputHook[0] 	"total packets" 	1666487
scalar University.remoteR.eth[0].outputHook[0] 	"total bits" 	15644376040
scalar University.remoteR.eth[0].outputHook[0] 	"avg throughput (bit/s)" 	2894426.5730918
scalar University.remoteR.eth[0].outputHook[0] 	"avg packets/s" 	308.32321111299
scalar University.remoteR.eth[0].inputHook[0] 	duration 	5405.0001424942
scalar University.remoteR.eth[0].inputHook[0] 	"total packets" 	1665327
scalar University.remoteR.eth[0].inputHook[0] 	"total bits" 	6161227672
scalar University.remoteR.eth[0].inputHook[0] 	"avg throughput (bit/s)" 	1139912.582714
scalar University.remoteR.eth[0].inputHook[0] 	"avg packets/s" 	308.10859502244
scalar University.remoteR.eth[0].mac 	"simulated time" 	5405.0001424942
scalar University.remoteR.eth[0].mac 	full-duplex 	1
scalar University.remoteR.eth[0].mac 	"frames/sec sent" 	308.32321111299
scalar University.remoteR.eth[0].mac 	"frames/sec rcvd" 	308.10859502244
scalar University.remoteR.eth[0].mac 	"bits/sec sent" 	2942045.0436218
scalar University.remoteR.eth[0].mac 	"bits/sec rcvd" 	1181675.4426675
scalar University.remoteR.eth[0].mac 	"rx channel idle (%)" 	98.798605607251
scalar University.remoteR.eth[0].mac 	"rx channel utilization (%)" 	1.201394392749
scalar University.remoteR.eth[0].mac 	rxPkFromHL:count 	1664983
attr interpolationmode  none
attr source  rxPkFromHL
attr title  "packet bytes from higher layer, count"
scalar University.remoteR.eth[0].mac 	rxPkFromHL:sum(packetBytes) 	1986323817
attr interpolationmode  none
attr source  rxPkFromHL
attr title  "packet bytes from higher layer, sum(packetBytes)"
scalar University.remoteR.eth[0].mac 	rxPausePkUnits:count 	0
attr interpolationmode  none
attr title  "pause units received, count"
scalar University.remoteR.eth[0].mac 	rxPausePkUnits:sum 	0
attr interpolationmode  none
attr title  "pause units received, sum"
scalar University.remoteR.eth[0].mac 	txPausePkUnits:count 	0
attr interpolationmode  none
attr title  "pause units sent, count"
scalar University.remoteR.eth[0].mac 	txPausePkUnits:sum 	0
attr interpolationmode  none
attr title  "pause units sent, sum"
scalar University.remoteR.eth[0].mac 	txPk:count 	1664983
attr interpolationmode  none
attr source  txPk
attr title  "packets transmitted, count"
scalar University.remoteR.eth[0].mac 	txPk:sum(packetBytes) 	1986323817
attr interpolationmode  none
attr source  txPk
attr title  "packets transmitted, sum(packetBytes)"
scalar University.remoteR.eth[0].mac 	droppedPkNotForUs:count 	0
attr interpolationmode  none
attr source  dropPkNotForUs
attr title  "packets dropped/not for us, count"
scalar University.remoteR.eth[0].mac 	droppedPkNotForUs:sum(packetBytes) 	0
attr interpolationmode  none
attr source  dropPkNotForUs
attr title  "packets dropped/not for us, sum(packetBytes)"
scalar University.remoteR.eth[0].mac 	passedUpPk:count 	1663816
attr interpolationmode  none
attr source  packetSentToUpper
attr title  "packets passed to higher layer, count"
scalar University.remoteR.eth[0].mac 	passedUpPk:sum(packetBytes) 	797242854
attr interpolationmode  none
attr source  packetSentToUpper
attr title  "packets passed to higher layer, sum(packetBytes)"
scalar University.remoteR.eth[0].mac 	droppedPkBitError:count 	0
attr interpolationmode  none
attr source  dropPkBitError
attr title  "packets dropped/bit error, count"
scalar University.remoteR.eth[0].mac 	droppedPkBitError:sum(packetBytes) 	0
attr interpolationmode  none
attr source  dropPkBitError
attr title  "packets dropped/bit error, sum(packetBytes)"
scalar University.remoteR.eth[0].mac 	droppedPkIfaceDown:count 	0
attr interpolationmode  none
attr source  dropPkIfaceDown
attr title  "packets dropped/interface down, count"
scalar University.remoteR.eth[0].mac 	droppedPkIfaceDown:sum(packetBytes) 	0
attr interpolationmode  none
attr source  dropPkIfaceDown
attr title  "packets dropped/interface down, sum(packetBytes)"
scalar University.remoteR.eth[0].mac 	rxPkOk:count 	1663816
attr interpolationmode  none
attr source  rxPkOk
attr title  "packets received OK, count"
scalar University.remoteR.eth[0].mac 	rxPkOk:sum(packetBytes) 	797242854
attr interpolationmode  none
attr source  rxPkOk
attr title  "packets received OK, sum(packetBytes)"
scalar University.remoteR.eth[0].encap 	pauseSent:count 	0
attr title  "pause sent, count"
scalar University.remoteR.eth[0].encap 	pauseSent:sum 	0
attr title  "pause sent, sum"
scalar University.remoteR.eth[0].encap 	decapPk:count 	1663816
attr interpolationmode  none
attr source  decapPk
attr title  "packets decapsulated, count"
scalar University.remoteR.eth[0].encap 	decapPk:sum(packetBytes) 	769045728
attr interpolationmode  none
attr source  decapPk
attr title  "packets decapsulated, sum(packetBytes)"
scalar University.remoteR.eth[0].encap 	encapPk:count 	1664983
attr interpolationmode  none
attr source  encapPk
attr title  "packets encapsulated, count"
scalar University.remoteR.eth[0].encap 	encapPk:sum(packetBytes) 	1954182319
attr interpolationmode  none
attr source  encapPk
attr title  "packets encapsulated, sum(packetBytes)"
scalar University.remoteR.eth[1].outputHook[0] 	duration 	5405.0001424942
scalar University.remoteR.eth[1].outputHook[0] 	"total packets" 	47
scalar University.remoteR.eth[1].outputHook[0] 	"total bits" 	10528
scalar University.remoteR.eth[1].outputHook[0] 	"avg throughput (bit/s)" 	1.9478260356052
scalar University.remoteR.eth[1].outputHook[0] 	"avg packets/s" 	0.0086956519446661
scalar University.remoteR.eth[1].inputHook[0] 	duration 	5405.0001424942
scalar University.remoteR.eth[1].inputHook[0] 	"total packets" 	945914
scalar University.remoteR.eth[1].inputHook[0] 	"total bits" 	11229355200
scalar University.remoteR.eth[1].inputHook[0] 	"avg throughput (bit/s)" 	2077586.4762176
scalar University.remoteR.eth[1].inputHook[0] 	"avg packets/s" 	175.00721092738
scalar University.remoteR.eth[1].mac 	"simulated time" 	5405.0001424942
scalar University.remoteR.eth[1].mac 	full-duplex 	1
scalar University.remoteR.eth[1].mac 	"frames/sec sent" 	0.0086956519446661
scalar University.remoteR.eth[1].mac 	"frames/sec rcvd" 	175.00721092738
scalar University.remoteR.eth[1].mac 	"bits/sec sent" 	4.452173795669
scalar University.remoteR.eth[1].mac 	"bits/sec rcvd" 	2102788.740123
scalar University.remoteR.eth[1].mac 	"rx channel idle (%)" 	97.886010798378
scalar University.remoteR.eth[1].mac 	"rx channel utilization (%)" 	2.1139892016223
scalar University.remoteR.eth[1].mac 	rxPkFromHL:count 	45
attr interpolationmode  none
attr source  rxPkFromHL
attr title  "packet bytes from higher layer, count"
scalar University.remoteR.eth[1].mac 	rxPkFromHL:sum(packetBytes) 	2880
attr interpolationmode  none
attr source  rxPkFromHL
attr title  "packet bytes from higher layer, sum(packetBytes)"
scalar University.remoteR.eth[1].mac 	rxPausePkUnits:count 	0
attr interpolationmode  none
attr title  "pause units received, count"
scalar University.remoteR.eth[1].mac 	rxPausePkUnits:sum 	0
attr interpolationmode  none
attr title  "pause units received, sum"
scalar University.remoteR.eth[1].mac 	txPausePkUnits:count 	0
attr interpolationmode  none
attr title  "pause units sent, count"
scalar University.remoteR.eth[1].mac 	txPausePkUnits:sum 	0
attr interpolationmode  none
attr title  "pause units sent, sum"
scalar University.remoteR.eth[1].mac 	txPk:count 	45
attr interpolationmode  none
attr source  txPk
attr title  "packets transmitted, count"
scalar University.remoteR.eth[1].mac 	txPk:sum(packetBytes) 	2880
attr interpolationmode  none
attr source  txPk
attr title  "packets transmitted, sum(packetBytes)"
scalar University.remoteR.eth[1].mac 	droppedPkNotForUs:count 	0
attr interpolationmode  none
attr source  dropPkNotForUs
attr title  "packets dropped/not for us, count"
scalar University.remoteR.eth[1].mac 	droppedPkNotForUs:sum(packetBytes) 	0
attr interpolationmode  none
attr source  dropPkNotForUs
attr title  "packets dropped/not for us, sum(packetBytes)"
scalar University.remoteR.eth[1].mac 	passedUpPk:count 	945045
attr interpolationmode  none
attr source  packetSentToUpper
attr title  "packets passed to higher layer, count"
scalar University.remoteR.eth[1].mac 	passedUpPk:sum(packetBytes) 	1419392880
attr interpolationmode  none
attr source  packetSentToUpper
attr title  "packets passed to higher layer, sum(packetBytes)"
scalar University.remoteR.eth[1].mac 	droppedPkBitError:count 	0
attr interpolationmode  none
attr source  dropPkBitError
attr title  "packets dropped/bit error, count"
scalar University.remoteR.eth[1].mac 	droppedPkBitError:sum(packetBytes) 	0
attr interpolationmode  none
attr source  dropPkBitError
attr title  "packets dropped/bit error, sum(packetBytes)"
scalar University.remoteR.eth[1].mac 	droppedPkIfaceDown:count 	0
attr interpolationmode  none
attr source  dropPkIfaceDown
attr title  "packets dropped/interface down, count"
scalar University.remoteR.eth[1].mac 	droppedPkIfaceDown:sum(packetBytes) 	0
attr interpolationmode  none
attr source  dropPkIfaceDown
attr title  "packets dropped/interface down, sum(packetBytes)"
scalar University.remoteR.eth[1].mac 	rxPkOk:count 	945045
attr interpolationmode  none
attr source  rxPkOk
attr title  "packets received OK, count"
scalar University.remoteR.eth[1].mac 	rxPkOk:sum(packetBytes) 	1419392880
attr interpolationmode  none
attr source  rxPkOk
attr title  "packets received OK, sum(packetBytes)"
scalar University.remoteR.eth[1].encap 	pauseSent:count 	0
attr title  "pause sent, count"
scalar University.remoteR.eth[1].encap 	pauseSent:sum 	0
attr title  "pause sent, sum"
scalar University.remoteR.eth[1].encap 	decapPk:count 	945045
attr interpolationmode  none
attr source  decapPk
attr title  "packets decapsulated, count"
scalar University.remoteR.eth[1].encap 	decapPk:sum(packetBytes) 	1402381260
attr interpolationmode  none
attr source  decapPk
attr title  "packets decapsulated, sum(packetBytes)"
scalar University.remoteR.eth[1].encap 	encapPk:count 	45
attr interpolationmode  none
attr source  encapPk
attr title  "packets encapsulated, count"
scalar University.remoteR.eth[1].encap 	encapPk:sum(packetBytes) 	1260
attr interpolationmode  none
attr source  encapPk
attr title  "packets encapsulated, sum(packetBytes)"
scalar University.remoteR.ppp[0].outputHook[0] 	duration 	5405.0001424942
scalar University.remoteR.ppp[0].outputHook[0] 	"total packets" 	2610765
scalar University.remoteR.ppp[0].outputHook[0] 	"total bits" 	17390476248
scalar University.remoteR.ppp[0].outputHook[0] 	"avg throughput (bit/s)" 	3217479.3320126
scalar University.remoteR.ppp[0].outputHook[0] 	"avg packets/s" 	483.02773934715
scalar University.remoteR.ppp[0].inputHook[0] 	duration 	5405.0001424942
scalar University.remoteR.ppp[0].inputHook[0] 	"total packets" 	1666050
scalar University.remoteR.ppp[0].inputHook[0] 	"total bits" 	15644278152
scalar University.remoteR.ppp[0].inputHook[0] 	"avg throughput (bit/s)" 	2894408.4624539
scalar University.remoteR.ppp[0].inputHook[0] 	"avg packets/s" 	308.2423600513
statistic University.remoteR.ppp[0].queue 	queueingTime:histogram
field count 2608389
field mean 0.0021361803045557
field stddev 0.0037841673271741
field sum 5571.9892084198
field sqrsum 49.254687249115
field min 0
field max 0.051870010975
attr interpolationmode  none
attr title  "queueing time, histogram"
bin	-INF	0
bin	-0.002649360001	0
bin	-0.0022961120008667	0
bin	-0.0019428640007333	0
bin	-0.0015896160006	0
bin	-0.0012363680004667	0
bin	-0.00088312000033333	0
bin	-0.0005298720002	0
bin	-0.00017662400006667	1310227
bin	0.00017662400006667	57322
bin	0.0005298720002	151638
bin	0.00088312000033333	27234
bin	0.0012363680004667	16209
bin	0.0015896160006	144982
bin	0.0019428640007333	14712
bin	0.0022961120008667	129007
bin	0.002649360001	32595
bin	0.0030026080011333	17149
bin	0.0033558560012667	146404
bin	0.0037091040014	17860
bin	0.0040623520015333	125405
bin	0.0044156000016667	41411
bin	0.0047688480018	19670
bin	0.0051220960019333	148198
bin	0.0054753440020667	24216
bin	0.0058285920022	22513
bin	0.0061818400023333	12575
bin	0.0065350880024667	9824
bin	0.0068883360026	9665
bin	0.0072415840027333	7282
bin	0.0075948320028667	6567
bin	0.007948080003	115724
scalar University.remoteR.ppp[0].queue 	dropPk:count 	0
attr interpolationmode  none
attr source  dropPkByQueue
attr title  "dropped packets, count"
scalar University.remoteR.ppp[0].queue 	dropPk:sum(packetBytes) 	0
attr interpolationmode  none
attr source  dropPkByQueue
attr title  "dropped packets, sum(packetBytes)"
scalar University.remoteR.ppp[0].queue 	queueLength:max 	53
attr interpolationmode  sample-hold
attr title  "queue length, max"
scalar University.remoteR.ppp[0].queue 	queueLength:timeavg 	1.0318515512032
attr interpolationmode  sample-hold
attr title  "queue length, timeavg"
scalar University.remoteR.ppp[0].queue 	rcvdPk:count 	2608389
attr interpolationmode  none
attr title  "received packets, count"
scalar University.remoteR.ppp[0].queue 	rcvdPk:sum(packetBytes) 	2171413772
attr interpolationmode  none
attr title  "received packets, sum(packetBytes)"
scalar University.remoteR.ppp[0].ppp 	rcvdPkFromHL:count 	2608389
attr interpolationmode  none
attr source  packetReceivedFromUpper
attr title  "packets received from higher layer, count"
scalar University.remoteR.ppp[0].ppp 	rcvdPkFromHL:sum(packetBytes) 	2171413772
attr interpolationmode  none
attr source  packetReceivedFromUpper
attr title  "packets received from higher layer, sum(packetBytes)"
scalar University.remoteR.ppp[0].ppp 	passedUpPk:count 	1664549
attr interpolationmode  none
attr source  packetSentToUpper
attr title  "packets passed to higher layer, count"
scalar University.remoteR.ppp[0].ppp 	passedUpPk:sum(packetBytes) 	1954170167
attr interpolationmode  none
attr source  packetSentToUpper
attr title  "packets passed to higher layer, sum(packetBytes)"
scalar University.remoteR.ppp[0].ppp 	txPk:count 	2608389
attr interpolationmode  none
attr source  packetSentToLower
attr title  "packets transmitted, count"
scalar University.remoteR.ppp[0].ppp 	txPk:sum(packetBytes) 	2189672495
attr interpolationmode  none
attr source  packetSentToLower
attr title  "packets transmitted, sum(packetBytes)"
scalar University.remoteR.ppp[0].ppp 	droppedPkBitError:count 	0
attr interpolationmode  none
attr source  dropPkBitError
attr title  "packets dropped/bit error, count"
scalar University.remoteR.ppp[0].ppp 	droppedPkBitError:sum(packetBytes) 	0
attr interpolationmode  none
attr source  dropPkBitError
attr title  "packets dropped/bit error, sum(packetBytes)"
scalar University.remoteR.ppp[0].ppp 	droppedPkIfaceDown:count 	0
attr interpolationmode  none
attr source  dropPkIfaceDown
attr title  "packets dropped/interface down, count"
scalar University.remoteR.ppp[0].ppp 	droppedPkIfaceDown:sum(packetBytes) 	0
attr interpolationmode  none
attr source  dropPkIfaceDown
attr title  "packets dropped/interface down, sum(packetBytes)"
scalar University.remoteR.ppp[0].ppp 	rxPkOk:count 	1664549
attr interpolationmode  none
attr source  rxPkOk
attr title  "packets received OK, count"
scalar University.remoteR.ppp[0].ppp 	rxPkOk:sum(packetBytes) 	1965822010
attr interpolationmode  none
attr source  rxPkOk
attr title  "packets received OK, sum(packetBytes)"
scalar University.remoteR.ppp[0].ppp 	txState:timeavg 	0.27033037605678
attr interpolationmode  sample-hold
attr title  "tx state, timeavg"
scalar University.mainR.networkLayer.arp 	initiatedARPResolution:count 	0
attr title  "ARP initiated resolutions, count"
scalar University.mainR.networkLayer.arp 	sentReply:count 	0
attr title  "ARP replies sent, count"
scalar University.mainR.networkLayer.arp 	sentReq:count 	0
attr title  "ARP request sent, count"
scalar University.mainR.networkLayer.arp 	failedARPResolution:count 	0
attr title  "ARP failed resolutions, count"
scalar University.mainR.networkLayer.arp 	completedARPResolution:count 	0
attr title  "ARP completed resolutions, count"
scalar University.mainR.lo0.lo 	rcvdPkFromHL:count 	0
attr interpolationmode  none
attr source  packetReceivedFromUpper
attr title  "packets received from higher layer, count"
scalar University.mainR.lo0.lo 	rcvdPkFromHL:sum(packetBytes) 	0
attr interpolationmode  none
attr source  packetReceivedFromUpper
attr title  "packets received from higher layer, sum(packetBytes)"
scalar University.mainR.lo0.lo 	passedUpPk:count 	0
attr interpolationmode  none
attr source  packetSentToUpper
attr title  "packets passed to higher layer, count"
scalar University.mainR.lo0.lo 	passedUpPk:sum(packetBytes) 	0
attr interpolationmode  none
attr source  packetSentToUpper
attr title  "packets passed to higher layer, sum(packetBytes)"
scalar University.mainR.lo0.lo 	droppedPkBitError:count 	0
attr interpolationmode  none
attr source  dropPkBitError
attr title  "packets dropped/bit error, count"
scalar University.mainR.lo0.lo 	droppedPkBitError:sum(packetBytes) 	0
attr interpolationmode  none
attr source  dropPkBitError
attr title  "packets dropped/bit error, sum(packetBytes)"
scalar University.mainR.ppp[0].outputHook[0] 	duration 	5405.0001424942
scalar University.mainR.ppp[0].outputHook[0] 	"total packets" 	1773068
scalar University.mainR.ppp[0].outputHook[0] 	"total bits" 	16924517000
scalar University.mainR.ppp[0].outputHook[0] 	"avg throughput (bit/s)" 	3131270.4077358
scalar University.mainR.ppp[0].outputHook[0] 	"avg packets/s" 	328.04217451543
scalar University.mainR.ppp[0].inputHook[0] 	duration 	5405.0001424942
scalar University.mainR.ppp[0].inputHook[0] 	"total packets" 	2610765
scalar University.mainR.ppp[0].inputHook[0] 	"total bits" 	17390476248
scalar University.mainR.ppp[0].inputHook[0] 	"avg throughput (bit/s)" 	3217479.3320126
scalar University.mainR.ppp[0].inputHook[0] 	"avg packets/s" 	483.02773934715
statistic University.mainR.ppp[0].queue 	queueingTime:histogram
field count 1664558
field mean 0.020242193009331
field stddev 0.032613672722557
field sum 33694.304311226
field sqrsum 2452.5554081787
field min 0
field max 0.10046666659
attr interpolationmode  none
attr title  "queueing time, histogram"
bin	-INF	0
bin	-0.0004866666665	0
bin	-0.00042177777763333	0
bin	-0.00035688888876667	0
bin	-0.0002919999999	0
bin	-0.00022711111103333	0
bin	-0.00016222222216667	0
bin	-9.73333333e-05	0
bin	-3.2444444433333e-05	659929
bin	3.2444444433333e-05	11952
bin	9.73333333e-05	7225
bin	0.00016222222216667	3822
bin	0.00022711111103333	1962
bin	0.0002919999999	2119
bin	0.00035688888876667	2348
bin	0.00042177777763333	2222
bin	0.0004866666665	3293
bin	0.00055155555536667	5370
bin	0.00061644444423333	4802
bin	0.0006813333331	5422
bin	0.00074622222196667	5011
bin	0.00081111111083333	7938
bin	0.0008759999997	88879
bin	0.00094088888856667	21403
bin	0.0010057777774333	4524
bin	0.0010706666663	3614
bin	0.0011355555551667	2301
bin	0.0012004444440333	1586
bin	0.0012653333329	1329
bin	0.0013302222217667	1620
bin	0.0013951111106333	1645
bin	0.0014599999995	814242
scalar University.mainR.ppp[0].queue 	dropPk:count 	106844
attr interpolationmode  none
attr source  dropPkByQueue
attr title  "dropped packets, count"
scalar University.mainR.ppp[0].queue 	dropPk:sum(packetBytes) 	159770604
attr interpolationmode  none
attr source  dropPkByQueue
attr title  "dropped packets, sum(packetBytes)"
scalar University.mainR.ppp[0].queue 	queueLength:max 	100
attr interpolationmode  sample-hold
attr title  "queue length, max"
scalar University.mainR.ppp[0].queue 	queueLength:timeavg 	6.2396959504147
attr interpolationmode  sample-hold
attr title  "queue length, timeavg"
scalar University.mainR.ppp[0].queue 	rcvdPk:count 	1771404
attr interpolationmode  none
attr title  "received packets, count"
scalar University.mainR.ppp[0].queue 	rcvdPk:sum(packetBytes) 	2113955811
attr interpolationmode  none
attr title  "received packets, sum(packetBytes)"
scalar University.mainR.ppp[0].ppp 	rcvdPkFromHL:count 	1664557
attr interpolationmode  none
attr source  packetReceivedFromUpper
attr title  "packets received from higher layer, count"
scalar University.mainR.ppp[0].ppp 	rcvdPkFromHL:sum(packetBytes) 	1954180707
attr interpolationmode  none
attr source  packetReceivedFromUpper
attr title  "packets received from higher layer, sum(packetBytes)"
scalar University.mainR.ppp[0].ppp 	passedUpPk:count 	2608389
attr interpolationmode  none
attr source  packetSentToUpper
attr title  "packets passed to higher layer, count"
scalar University.mainR.ppp[0].ppp 	passedUpPk:sum(packetBytes) 	2171413772
attr interpolationmode  none
attr source  packetSentToUpper
attr title  "packets passed to higher layer, sum(packetBytes)"
scalar University.mainR.ppp[0].ppp 	txPk:count 	1664557
attr interpolationmode  none
attr source  packetSentToLower
attr title  "packets transmitted, count"
scalar University.mainR.ppp[0].ppp 	txPk:sum(packetBytes) 	1965832606
attr interpolationmode  none
attr source  packetSentToLower
attr title  "packets transmitted, sum(packetBytes)"
scalar University.mainR.ppp[0].ppp 	droppedPkBitError:count 	0
attr interpolationmode  none
attr source  dropPkBitError
attr title  "packets dropped/bit error, count"
scalar University.mainR.ppp[0].ppp 	droppedPkBitError:sum(packetBytes) 	0
attr interpolationmode  none
attr source  dropPkBitError
attr title  "packets dropped/bit error, sum(packetBytes)"
scalar University.mainR.ppp[0].ppp 	droppedPkIfaceDown:count 	0
attr interpolationmode  none
attr source  dropPkIfaceDown
attr title  "packets dropped/interface down, count"
scalar University.mainR.ppp[0].ppp 	droppedPkIfaceDown:sum(packetBytes) 	0
attr interpolationmode  none
attr source  dropPkIfaceDown
attr title  "packets dropped/interface down, sum(packetBytes)"
scalar University.mainR.ppp[0].ppp 	rxPkOk:count 	2608389
attr interpolationmode  none
attr source  rxPkOk
attr title  "packets received OK, count"
scalar University.mainR.ppp[0].ppp 	rxPkOk:sum(packetBytes) 	2189672495
attr interpolationmode  none
attr source  rxPkOk
attr title  "packets received OK, sum(packetBytes)"
scalar University.mainR.ppp[0].ppp 	txState:timeavg 	0.24269575268936
attr interpolationmode  sample-hold
attr title  "tx state, timeavg"
scalar University.mainR.ppp[1].outputHook[0] 	duration 	5405.0001424942
scalar University.mainR.ppp[1].outputHook[0] 	"total packets" 	135043
scalar University.mainR.ppp[1].outputHook[0] 	"total bits" 	1542731232
scalar University.mainR.ppp[1].outputHook[0] 	"avg throughput (bit/s)" 	285426.67739655
scalar University.mainR.ppp[1].outputHook[0] 	"avg packets/s" 	24.98482820348
scalar University.mainR.ppp[1].inputHook[0] 	duration 	5405.0001424942
scalar University.mainR.ppp[1].inputHook[0] 	"total packets" 	135125
scalar University.mainR.ppp[1].inputHook[0] 	"total bits" 	1543668000
scalar University.mainR.ppp[1].inputHook[0] 	"avg throughput (bit/s)" 	285599.99247061
scalar University.mainR.ppp[1].inputHook[0] 	"avg packets/s" 	24.999999340915
statistic University.mainR.ppp[1].queue 	queueingTime:histogram
field count 134918
field mean 0
field stddev 0
field sum 0
field sqrsum 0
field min 0
field max 0
attr interpolationmode  none
attr title  "queueing time, histogram"
bin	-INF	0
bin	-0.5	0
bin	-0.46666666666667	0
bin	-0.43333333333333	0
bin	-0.4	0
bin	-0.36666666666667	0
bin	-0.33333333333333	0
bin	-0.3	0
bin	-0.26666666666667	0
bin	-0.23333333333333	0
bin	-0.2	0
bin	-0.16666666666667	0
bin	-0.13333333333333	0
bin	-0.1	0
bin	-0.066666666666667	0
bin	-0.033333333333333	0
bin	0	134918
bin	0.033333333333333	0
bin	0.066666666666667	0
bin	0.1	0
bin	0.13333333333333	0
bin	0.16666666666667	0
bin	0.2	0
bin	0.23333333333333	0
bin	0.26666666666667	0
bin	0.3	0
bin	0.33333333333333	0
bin	0.36666666666667	0
bin	0.4	0
bin	0.43333333333333	0
bin	0.46666666666667	0
bin	0.5	0
scalar University.mainR.ppp[1].queue 	dropPk:count 	0
attr interpolationmode  none
attr source  dropPkByQueue
attr title  "dropped packets, count"
scalar University.mainR.ppp[1].queue 	dropPk:sum(packetBytes) 	0
attr interpolationmode  none
attr source  dropPkByQueue
attr title  "dropped packets, sum(packetBytes)"
scalar University.mainR.ppp[1].queue 	queueLength:max 	-nan
attr interpolationmode  sample-hold
attr title  "queue length, max"
scalar University.mainR.ppp[1].queue 	queueLength:timeavg 	-nan
attr interpolationmode  sample-hold
attr title  "queue length, timeavg"
scalar University.mainR.ppp[1].queue 	rcvdPk:count 	134918
attr interpolationmode  none
attr title  "received packets, count"
scalar University.mainR.ppp[1].queue 	rcvdPk:sum(packetBytes) 	192662904
attr interpolationmode  none
attr title  "received packets, sum(packetBytes)"
scalar University.mainR.ppp[1].ppp 	rcvdPkFromHL:count 	134918
attr interpolationmode  none
attr source  packetReceivedFromUpper
attr title  "packets received from higher layer, count"
scalar University.mainR.ppp[1].ppp 	rcvdPkFromHL:sum(packetBytes) 	192662904
attr interpolationmode  none
attr source  packetReceivedFromUpper
attr title  "packets received from higher layer, sum(packetBytes)"
scalar University.mainR.ppp[1].ppp 	passedUpPk:count 	135000
attr interpolationmode  none
attr source  packetSentToUpper
attr title  "packets passed to higher layer, count"
scalar University.mainR.ppp[1].ppp 	passedUpPk:sum(packetBytes) 	192780000
attr interpolationmode  none
attr source  packetSentToUpper
attr title  "packets passed to higher layer, sum(packetBytes)"
scalar University.mainR.ppp[1].ppp 	txPk:count 	134918
attr interpolationmode  none
attr source  packetSentToLower
attr title  "packets transmitted, count"
scalar University.mainR.ppp[1].ppp 	txPk:sum(packetBytes) 	193607330
attr interpolationmode  none
attr source  packetSentToLower
attr title  "packets transmitted, sum(packetBytes)"
scalar University.mainR.ppp[1].ppp 	droppedPkBitError:count 	0
attr interpolationmode  none
attr source  dropPkBitError
attr title  "packets dropped/bit error, count"
scalar University.mainR.ppp[1].ppp 	droppedPkBitError:sum(packetBytes) 	0
attr interpolationmode  none
attr source  dropPkBitError
attr title  "packets dropped/bit error, sum(packetBytes)"
scalar University.mainR.ppp[1].ppp 	droppedPkIfaceDown:count 	0
attr interpolationmode  none
attr source  dropPkIfaceDown
attr title  "packets dropped/interface down, count"
scalar University.mainR.ppp[1].ppp 	droppedPkIfaceDown:sum(packetBytes) 	0
attr interpolationmode  none
attr source  dropPkIfaceDown
attr title  "packets dropped/interface down, sum(packetBytes)"
scalar University.mainR.ppp[1].ppp 	rxPkOk:count 	135000
attr interpolationmode  none
attr source  rxPkOk
attr title  "packets received OK, count"
scalar University.mainR.ppp[1].ppp 	rxPkOk:sum(packetBytes) 	193725000
attr interpolationmode  none
attr source  rxPkOk
attr title  "packets received OK, sum(packetBytes)"
scalar University.mainR.ppp[1].ppp 	txState:timeavg 	0
attr interpolationmode  sample-hold
attr title  "tx state, timeavg"
scalar University.mainR.ppp[2].outputHook[0] 	duration 	5405.0001424942
scalar University.mainR.ppp[2].outputHook[0] 	"total packets" 	1529854
scalar University.mainR.ppp[2].outputHook[0] 	"total bits" 	4618400120
scalar University.mainR.ppp[2].outputHook[0] 	"avg throughput (bit/s)" 	854468.08478136
scalar University.mainR.ppp[2].outputHook[0] 	"avg packets/s" 	283.04421085436
scalar University.mainR.ppp[2].inputHook[0] 	duration 	5405.0001424942
scalar University.mainR.ppp[2].inputHook[0] 	"total packets" 	1637942
scalar University.mainR.ppp[2].inputHook[0] 	"total bits" 	15380848776
scalar University.mainR.ppp[2].inputHook[0] 	"avg throughput (bit/s)" 	2845670.3738221
scalar University.mainR.ppp[2].inputHook[0] 	"avg packets/s" 	303.04199016064
statistic University.mainR.ppp[2].queue 	queueingTime:histogram
field count 1528471
field mean 1.9206760693588e-06
field stddev 1.2572397648365e-05
field sum 2.9356976724088
field sqrsum 0.00024723641395864
field min 0
field max 8.9226667e-05
attr interpolationmode  none
attr title  "queueing time, histogram"
bin	-INF	0
bin	-4.46133335e-05	0
bin	-3.8664889033333e-05	0
bin	-3.2716444566667e-05	0
bin	-2.67680001e-05	0
bin	-2.0819555633333e-05	0
bin	-1.4871111166667e-05	0
bin	-8.9226667e-06	0
bin	-2.9742222333333e-06	1491058
bin	2.9742222333333e-06	1220
bin	8.9226667e-06	54
bin	1.4871111166667e-05	178
bin	2.0819555633333e-05	174
bin	2.67680001e-05	88
bin	3.2716444566667e-05	2023
bin	3.8664889033333e-05	147
bin	4.46133335e-05	30
bin	5.0561777966667e-05	71
bin	5.6510222433333e-05	5226
bin	6.24586669e-05	22
bin	6.8407111366667e-05	20
bin	7.4355555833333e-05	16
bin	8.03040003e-05	180
bin	8.6252444766667e-05	27964
bin	9.2200889233333e-05	0
bin	9.81493337e-05	0
bin	0.00010409777816667	0
bin	0.00011004622263333	0
bin	0.0001159946671	0
bin	0.00012194311156667	0
bin	0.00012789155603333	0
bin	0.0001338400005	0
scalar University.mainR.ppp[2].queue 	dropPk:count 	0
attr interpolationmode  none
attr source  dropPkByQueue
attr title  "dropped packets, count"
scalar University.mainR.ppp[2].queue 	dropPk:sum(packetBytes) 	0
attr interpolationmode  none
attr source  dropPkByQueue
attr title  "dropped packets, sum(packetBytes)"
scalar University.mainR.ppp[2].queue 	queueLength:max 	3
attr interpolationmode  sample-hold
attr title  "queue length, max"
scalar University.mainR.ppp[2].queue 	queueLength:timeavg 	0.00054385662095556
attr interpolationmode  sample-hold
attr title  "queue length, timeavg"
scalar University.mainR.ppp[2].queue 	rcvdPk:count 	1528471
attr interpolationmode  none
attr title  "received packets, count"
scalar University.mainR.ppp[2].queue 	rcvdPk:sum(packetBytes) 	576370868
attr interpolationmode  none
attr title  "received packets, sum(packetBytes)"
scalar University.mainR.ppp[2].ppp 	rcvdPkFromHL:count 	1528471
attr interpolationmode  none
attr source  packetReceivedFromUpper
attr title  "packets received from higher layer, count"
scalar University.mainR.ppp[2].ppp 	rcvdPkFromHL:sum(packetBytes) 	576370868
attr interpolationmode  none
attr source  packetReceivedFromUpper
attr title  "packets received from higher layer, sum(packetBytes)"
scalar University.mainR.ppp[2].ppp 	passedUpPk:count 	1636404
attr interpolationmode  none
attr source  packetSentToUpper
attr title  "packets passed to higher layer, count"
scalar University.mainR.ppp[2].ppp 	passedUpPk:sum(packetBytes) 	1921175811
attr interpolationmode  none
attr source  packetSentToUpper
attr title  "packets passed to higher layer, sum(packetBytes)"
scalar University.mainR.ppp[2].ppp 	txPk:count 	1528471
attr interpolationmode  none
attr source  packetSentToLower
attr title  "packets transmitted, count"
scalar University.mainR.ppp[2].ppp 	txPk:sum(packetBytes) 	587070165
attr interpolationmode  none
attr source  packetSentToLower
attr title  "packets transmitted, sum(packetBytes)"
scalar University.mainR.ppp[2].ppp 	droppedPkBitError:count 	0
attr interpolationmode  none
attr source  dropPkBitError
attr title  "packets dropped/bit error, count"
scalar University.mainR.ppp[2].ppp 	droppedPkBitError:sum(packetBytes) 	0
attr interpolationmode  none
attr source  dropPkBitError
attr title  "packets dropped/bit error, sum(packetBytes)"
scalar University.mainR.ppp[2].ppp 	droppedPkIfaceDown:count 	0
attr interpolationmode  none
attr source  dropPkIfaceDown
attr title  "packets dropped/interface down, count"
scalar University.mainR.ppp[2].ppp 	droppedPkIfaceDown:sum(packetBytes) 	0
attr interpolationmode  none
attr source  dropPkIfaceDown
attr title  "packets dropped/interface down, sum(packetBytes)"
scalar University.mainR.ppp[2].ppp 	rxPkOk:count 	1636404
attr interpolationmode  none
attr source  rxPkOk
attr title  "packets received OK, count"
scalar University.mainR.ppp[2].ppp 	rxPkOk:sum(packetBytes) 	1932630639
attr interpolationmode  none
attr source  rxPkOk
attr title  "packets received OK, sum(packetBytes)"
scalar University.mainR.ppp[2].ppp 	txState:timeavg 	0.0086973841823368
attr interpolationmode  sample-hold
attr title  "tx state, timeavg"
scalar University.mainR.ppp[3].outputHook[0] 	duration 	5405.0001424942
scalar University.mainR.ppp[3].outputHook[0] 	"total packets" 	945868
scalar University.mainR.ppp[3].outputHook[0] 	"total bits" 	11229344896
scalar University.mainR.ppp[3].outputHook[0] 	"avg throughput (bit/s)" 	2077584.5698346
scalar University.mainR.ppp[3].outputHook[0] 	"avg packets/s" 	174.99870028931
scalar University.mainR.ppp[3].inputHook[0] 	duration 	5405.0001424942
scalar University.mainR.ppp[3].inputHook[0] 	"total packets" 	1
scalar University.mainR.ppp[3].inputHook[0] 	"total bits" 	224
scalar University.mainR.ppp[3].inputHook[0] 	"avg throughput (bit/s)" 	0.041443107140536
scalar University.mainR.ppp[3].inputHook[0] 	"avg packets/s" 	0.00018501387116311
statistic University.mainR.ppp[3].queue 	queueingTime:histogram
field count 945000
field mean 0
field stddev 0
field sum 0
field sqrsum 0
field min 0
field max 0
attr interpolationmode  none
attr title  "queueing time, histogram"
bin	-INF	0
bin	-0.5	0
bin	-0.46666666666667	0
bin	-0.43333333333333	0
bin	-0.4	0
bin	-0.36666666666667	0
bin	-0.33333333333333	0
bin	-0.3	0
bin	-0.26666666666667	0
bin	-0.23333333333333	0
bin	-0.2	0
bin	-0.16666666666667	0
bin	-0.13333333333333	0
bin	-0.1	0
bin	-0.066666666666667	0
bin	-0.033333333333333	0
bin	0	945000
bin	0.033333333333333	0
bin	0.066666666666667	0
bin	0.1	0
bin	0.13333333333333	0
bin	0.16666666666667	0
bin	0.2	0
bin	0.23333333333333	0
bin	0.26666666666667	0
bin	0.3	0
bin	0.33333333333333	0
bin	0.36666666666667	0
bin	0.4	0
bin	0.43333333333333	0
bin	0.46666666666667	0
bin	0.5	0
scalar University.mainR.ppp[3].queue 	dropPk:count 	0
attr interpolationmode  none
attr source  dropPkByQueue
attr title  "dropped packets, count"
scalar University.mainR.ppp[3].queue 	dropPk:sum(packetBytes) 	0
attr interpolationmode  none
attr source  dropPkByQueue
attr title  "dropped packets, sum(packetBytes)"
scalar University.mainR.ppp[3].queue 	queueLength:max 	-nan
attr interpolationmode  sample-hold
attr title  "queue length, max"
scalar University.mainR.ppp[3].queue 	queueLength:timeavg 	-nan
attr interpolationmode  sample-hold
attr title  "queue length, timeavg"
scalar University.mainR.ppp[3].queue 	rcvdPk:count 	945000
attr interpolationmode  none
attr title  "received packets, count"
scalar University.mainR.ppp[3].queue 	rcvdPk:sum(packetBytes) 	1402380000
attr interpolationmode  none
attr title  "received packets, sum(packetBytes)"
scalar University.mainR.ppp[3].ppp 	rcvdPkFromHL:count 	945000
attr interpolationmode  none
attr source  packetReceivedFromUpper
attr title  "packets received from higher layer, count"
scalar University.mainR.ppp[3].ppp 	rcvdPkFromHL:sum(packetBytes) 	1402380000
attr interpolationmode  none
attr source  packetReceivedFromUpper
attr title  "packets received from higher layer, sum(packetBytes)"
scalar University.mainR.ppp[3].ppp 	passedUpPk:count 	0
attr interpolationmode  none
attr source  packetSentToUpper
attr title  "packets passed to higher layer, count"
scalar University.mainR.ppp[3].ppp 	passedUpPk:sum(packetBytes) 	0
attr interpolationmode  none
attr source  packetSentToUpper
attr title  "packets passed to higher layer, sum(packetBytes)"
scalar University.mainR.ppp[3].ppp 	txPk:count 	945000
attr interpolationmode  none
attr source  packetSentToLower
attr title  "packets transmitted, count"
scalar University.mainR.ppp[3].ppp 	txPk:sum(packetBytes) 	1408995000
attr interpolationmode  none
attr source  packetSentToLower
attr title  "packets transmitted, sum(packetBytes)"
scalar University.mainR.ppp[3].ppp 	droppedPkBitError:count 	0
attr interpolationmode  none
attr source  dropPkBitError
attr title  "packets dropped/bit error, count"
scalar University.mainR.ppp[3].ppp 	droppedPkBitError:sum(packetBytes) 	0
attr interpolationmode  none
attr source  dropPkBitError
attr title  "packets dropped/bit error, sum(packetBytes)"
scalar University.mainR.ppp[3].ppp 	droppedPkIfaceDown:count 	0
attr interpolationmode  none
attr source  dropPkIfaceDown
attr title  "packets dropped/interface down, count"
scalar University.mainR.ppp[3].ppp 	droppedPkIfaceDown:sum(packetBytes) 	0
attr interpolationmode  none
attr source  dropPkIfaceDown
attr title  "packets dropped/interface down, sum(packetBytes)"
scalar University.mainR.ppp[3].ppp 	rxPkOk:count 	0
attr interpolationmode  none
attr source  rxPkOk
attr title  "packets received OK, count"
scalar University.mainR.ppp[3].ppp 	rxPkOk:sum(packetBytes) 	0
attr interpolationmode  none
attr source  rxPkOk
attr title  "packets received OK, sum(packetBytes)"
scalar University.mainR.ppp[3].ppp 	txState:timeavg 	0
attr interpolationmode  sample-hold
attr title  "tx state, timeavg"
scalar University.ccTVMonitoringHost.networkLayer.arp 	initiatedARPResolution:count 	0
attr title  "ARP initiated resolutions, count"
scalar University.ccTVMonitoringHost.networkLayer.arp 	sentReply:count 	0
attr title  "ARP replies sent, count"
scalar University.ccTVMonitoringHost.networkLayer.arp 	sentReq:count 	0
attr title  "ARP request sent, count"
scalar University.ccTVMonitoringHost.networkLayer.arp 	failedARPResolution:count 	0
attr title  "ARP failed resolutions, count"
scalar University.ccTVMonitoringHost.networkLayer.arp 	completedARPResolution:count 	0
attr title  "ARP completed resolutions, count"
scalar University.ccTVMonitoringHost.lo0.lo 	rcvdPkFromHL:count 	0
attr interpolationmode  none
attr source  packetReceivedFromUpper
attr title  "packets received from higher layer, count"
scalar University.ccTVMonitoringHost.lo0.lo 	rcvdPkFromHL:sum(packetBytes) 	0
attr interpolationmode  none
attr source  packetReceivedFromUpper
attr title  "packets received from higher layer, sum(packetBytes)"
scalar University.ccTVMonitoringHost.lo0.lo 	passedUpPk:count 	0
attr interpolationmode  none
attr source  packetSentToUpper
attr title  "packets passed to higher layer, count"
scalar University.ccTVMonitoringHost.lo0.lo 	passedUpPk:sum(packetBytes) 	0
attr interpolationmode  none
attr source  packetSentToUpper
attr title  "packets passed to higher layer, sum(packetBytes)"
scalar University.ccTVMonitoringHost.lo0.lo 	droppedPkBitError:count 	0
attr interpolationmode  none
attr source  dropPkBitError
attr title  "packets dropped/bit error, count"
scalar University.ccTVMonitoringHost.lo0.lo 	droppedPkBitError:sum(packetBytes) 	0
attr interpolationmode  none
attr source  dropPkBitError
attr title  "packets dropped/bit error, sum(packetBytes)"
scalar University.ccTVMonitoringHost.ppp[0].outputHook[0] 	duration 	5405.0001424942
scalar University.ccTVMonitoringHost.ppp[0].outputHook[0] 	"total packets" 	1
scalar University.ccTVMonitoringHost.ppp[0].outputHook[0] 	"total bits" 	224
scalar University.ccTVMonitoringHost.ppp[0].outputHook[0] 	"avg throughput (bit/s)" 	0.041443107140536
scalar University.ccTVMonitoringHost.ppp[0].outputHook[0] 	"avg packets/s" 	0.00018501387116311
scalar University.ccTVMonitoringHost.ppp[0].inputHook[0] 	duration 	5405.0001424942
scalar University.ccTVMonitoringHost.ppp[0].inputHook[0] 	"total packets" 	945868
scalar University.ccTVMonitoringHost.ppp[0].inputHook[0] 	"total bits" 	11229344896
scalar University.ccTVMonitoringHost.ppp[0].inputHook[0] 	"avg throughput (bit/s)" 	2077584.5698346
scalar University.ccTVMonitoringHost.ppp[0].inputHook[0] 	"avg packets/s" 	174.99870028931
statistic University.ccTVMonitoringHost.ppp[0].queue 	queueingTime:histogram
field count 0
field mean -nan
field stddev -nan
field sum 0
field sqrsum 0
field min -nan
field max -nan
attr interpolationmode  none
attr title  "queueing time, histogram"
bin	-INF	0
bin	-0.5	0
bin	-0.46666666666667	0
bin	-0.43333333333333	0
bin	-0.4	0
bin	-0.36666666666667	0
bin	-0.33333333333333	0
bin	-0.3	0
bin	-0.26666666666667	0
bin	-0.23333333333333	0
bin	-0.2	0
bin	-0.16666666666667	0
bin	-0.13333333333333	0
bin	-0.1	0
bin	-0.066666666666667	0
bin	-0.033333333333333	0
bin	0	0
bin	0.033333333333333	0
bin	0.066666666666667	0
bin	0.1	0
bin	0.13333333333333	0
bin	0.16666666666667	0
bin	0.2	0
bin	0.23333333333333	0
bin	0.26666666666667	0
bin	0.3	0
bin	0.33333333333333	0
bin	0.36666666666667	0
bin	0.4	0
bin	0.43333333333333	0
bin	0.46666666666667	0
bin	0.5	0
scalar University.ccTVMonitoringHost.ppp[0].queue 	dropPk:count 	0
attr interpolationmode  none
attr source  dropPkByQueue
attr title  "dropped packets, count"
scalar University.ccTVMonitoringHost.ppp[0].queue 	dropPk:sum(packetBytes) 	0
attr interpolationmode  none
attr source  dropPkByQueue
attr title  "dropped packets, sum(packetBytes)"
scalar University.ccTVMonitoringHost.ppp[0].queue 	queueLength:max 	-nan
attr interpolationmode  sample-hold
attr title  "queue length, max"
scalar University.ccTVMonitoringHost.ppp[0].queue 	queueLength:timeavg 	-nan
attr interpolationmode  sample-hold
attr title  "queue length, timeavg"
scalar University.ccTVMonitoringHost.ppp[0].queue 	rcvdPk:count 	0
attr interpolationmode  none
attr title  "received packets, count"
scalar University.ccTVMonitoringHost.ppp[0].queue 	rcvdPk:sum(packetBytes) 	0
attr interpolationmode  none
attr title  "received packets, sum(packetBytes)"
scalar University.ccTVMonitoringHost.ppp[0].ppp 	rcvdPkFromHL:count 	0
attr interpolationmode  none
attr source  packetReceivedFromUpper
attr title  "packets received from higher layer, count"
scalar University.ccTVMonitoringHost.ppp[0].ppp 	rcvdPkFromHL:sum(packetBytes) 	0
attr interpolationmode  none
attr source  packetReceivedFromUpper
attr title  "packets received from higher layer, sum(packetBytes)"
scalar University.ccTVMonitoringHost.ppp[0].ppp 	passedUpPk:count 	945000
attr interpolationmode  none
attr source  packetSentToUpper
attr title  "packets passed to higher layer, count"
scalar University.ccTVMonitoringHost.ppp[0].ppp 	passedUpPk:sum(packetBytes) 	1402380000
attr interpolationmode  none
attr source  packetSentToUpper
attr title  "packets passed to higher layer, sum(packetBytes)"
scalar University.ccTVMonitoringHost.ppp[0].ppp 	txPk:count 	0
attr interpolationmode  none
attr source  packetSentToLower
attr title  "packets transmitted, count"
scalar University.ccTVMonitoringHost.ppp[0].ppp 	txPk:sum(packetBytes) 	0
attr interpolationmode  none
attr source  packetSentToLower
attr title  "packets transmitted, sum(packetBytes)"
scalar University.ccTVMonitoringHost.ppp[0].ppp 	droppedPkBitError:count 	0
attr interpolationmode  none
attr source  dropPkBitError
attr title  "packets dropped/bit error, count"
scalar University.ccTVMonitoringHost.ppp[0].ppp 	droppedPkBitError:sum(packetBytes) 	0
attr interpolationmode  none
attr source  dropPkBitError
attr title  "packets dropped/bit error, sum(packetBytes)"
scalar University.ccTVMonitoringHost.ppp[0].ppp 	droppedPkIfaceDown:count 	0
attr interpolationmode  none
attr source  dropPkIfaceDown
attr title  "packets dropped/interface down, count"
scalar University.ccTVMonitoringHost.ppp[0].ppp 	droppedPkIfaceDown:sum(packetBytes) 	0
attr interpolationmode  none
attr source  dropPkIfaceDown
attr title  "packets dropped/interface down, sum(packetBytes)"
scalar University.ccTVMonitoringHost.ppp[0].ppp 	rxPkOk:count 	945000
attr interpolationmode  none
attr source  rxPkOk
attr title  "packets received OK, count"
scalar University.ccTVMonitoringHost.ppp[0].ppp 	rxPkOk:sum(packetBytes) 	1408995000
attr interpolationmode  none
attr source  rxPkOk
attr title  "packets received OK, sum(packetBytes)"
scalar University.ccTVMonitoringHost.ppp[0].ppp 	txState:timeavg 	-nan
attr interpolationmode  sample-hold
attr title  "tx state, timeavg"
scalar University.ccTVMonitoringHost.udpApp[0] 	rcvdPk:count 	135000
attr interpolationmode  none
attr source  rcvdPk
attr title  "packets received, count"
scalar University.ccTVMonitoringHost.udpApp[0] 	rcvdPk:sum(packetBytes) 	1382400000
attr interpolationmode  none
attr source  rcvdPk
attr title  "packets received, sum(packetBytes)"
statistic University.ccTVMonitoringHost.udpApp[0] 	endToEndDelay:histogram
field count 135000
field mean 0.01742884160412
field stddev 0.0020989919056047
field sum 2352.8936165563
field sqrsum 41.602984296211
field min 0.017080129996
field max 0.062358795396
attr interpolationmode  none
attr source  messageAge(rcvdPk)
attr title  "end-to-end delay, histogram"
attr unit  s
bin	-INF	0
bin	0.016137856631	0
bin	0.016263493079667	0
bin	0.016389129528333	0
bin	0.016514765977	0
bin	0.016640402425667	0
bin	0.016766038874333	0
bin	0.016891675323	0
bin	0.017017311771667	124027
bin	0.017142948220333	228
bin	0.017268584669	222
bin	0.017394221117667	222
bin	0.017519857566333	236
bin	0.017645494015	382
bin	0.017771130463667	420
bin	0.017896766912333	501
bin	0.018022403361	1795
bin	0.018148039809667	340
bin	0.018273676258333	322
bin	0.018399312707	315
bin	0.018524949155667	374
bin	0.018650585604333	790
bin	0.018776222053	297
bin	0.018901858501667	307
bin	0.019027494950333	265
bin	0.019153131399	157
bin	0.019278767847667	138
bin	0.019404404296333	144
bin	0.019530040745	84
bin	0.019655677193667	81
bin	0.019781313642333	73
bin	0.019906950091	3280
scalar University.ccTVMonitoringHost.udp 	droppedPkBadChecksum:count 	0
attr interpolationmode  none
attr title  "packets dropped (checksum error), count"
scalar University.ccTVMonitoringHost.udp 	droppedPkWrongPort:count 	0
attr interpolationmode  none
attr title  "packets dropped (wrong port), count"
scalar University.ccTVMonitoringHost.udp 	passedUpPk:count 	135000
attr interpolationmode  none
attr title  "packets passed up, count"
scalar University.ccTVMonitoringHost.udp 	sentPk:count 	0
attr interpolationmode  none
attr source  sentPk
attr title  "packets sent, count"
scalar University.ccTVMonitoringHost.udp 	sentPk:sum(packetBytes) 	0
attr interpolationmode  none
attr source  sentPk
attr title  "packets sent, sum(packetBytes)"
scalar University.ccTVMonitoringHost.udp 	rcvdPk:count 	135000
attr interpolationmode  none
attr source  rcvdPk
attr title  "packets received, count"
scalar University.ccTVMonitoringHost.udp 	rcvdPk:sum(packetBytes) 	1383480000
attr interpolationmode  none
attr source  rcvdPk
attr title  "packets received, sum(packetBytes)"
scalar University.profLaptop.networkLayer.arp 	initiatedARPResolution:count 	0
attr title  "ARP initiated resolutions, count"
scalar University.profLaptop.networkLayer.arp 	sentReply:count 	0
attr title  "ARP replies sent, count"
scalar University.profLaptop.networkLayer.arp 	sentReq:count 	0
attr title  "ARP request sent, count"
scalar University.profLaptop.networkLayer.arp 	failedARPResolution:count 	0
attr title  "ARP failed resolutions, count"
scalar University.profLaptop.networkLayer.arp 	completedARPResolution:count 	0
attr title  "ARP completed resolutions, count"
scalar University.profLaptop.lo0.lo 	rcvdPkFromHL:count 	0
attr interpolationmode  none
attr source  packetReceivedFromUpper
attr title  "packets received from higher layer, count"
scalar University.profLaptop.lo0.lo 	rcvdPkFromHL:sum(packetBytes) 	0
attr interpolationmode  none
attr source  packetReceivedFromUpper
attr title  "packets received from higher layer, sum(packetBytes)"
scalar University.profLaptop.lo0.lo 	passedUpPk:count 	0
attr interpolationmode  none
attr source  packetSentToUpper
attr title  "packets passed to higher layer, count"
scalar University.profLaptop.lo0.lo 	passedUpPk:sum(packetBytes) 	0
attr interpolationmode  none
attr source  packetSentToUpper
attr title  "packets passed to higher layer, sum(packetBytes)"
scalar University.profLaptop.lo0.lo 	droppedPkBitError:count 	0
attr interpolationmode  none
attr source  dropPkBitError
attr title  "packets dropped/bit error, count"
scalar University.profLaptop.lo0.lo 	droppedPkBitError:sum(packetBytes) 	0
attr interpolationmode  none
attr source  dropPkBitError
attr title  "packets dropped/bit error, sum(packetBytes)"
scalar University.profLaptop.ppp[0].outputHook[0] 	duration 	5405.0001424942
scalar University.profLaptop.ppp[0].outputHook[0] 	"total packets" 	135125
scalar University.profLaptop.ppp[0].outputHook[0] 	"total bits" 	1543668000
scalar University.profLaptop.ppp[0].outputHook[0] 	"avg throughput (bit/s)" 	285599.99247061
scalar University.profLaptop.ppp[0].outputHook[0] 	"avg packets/s" 	24.999999340915
scalar University.profLaptop.ppp[0].inputHook[0] 	duration 	5405.0001424942
scalar University.profLaptop.ppp[0].inputHook[0] 	"total packets" 	135043
scalar University.profLaptop.ppp[0].inputHook[0] 	"total bits" 	1542731232
scalar University.profLaptop.ppp[0].inputHook[0] 	"avg throughput (bit/s)" 	285426.67739655
scalar University.profLaptop.ppp[0].inputHook[0] 	"avg packets/s" 	24.98482820348
statistic University.profLaptop.ppp[0].queue 	queueingTime:histogram
field count 135000
field mean 0
field stddev 0
field sum 0
field sqrsum 0
field min 0
field max 0
attr interpolationmode  none
attr title  "queueing time, histogram"
bin	-INF	0
bin	-0.5	0
bin	-0.46666666666667	0
bin	-0.43333333333333	0
bin	-0.4	0
bin	-0.36666666666667	0
bin	-0.33333333333333	0
bin	-0.3	0
bin	-0.26666666666667	0
bin	-0.23333333333333	0
bin	-0.2	0
bin	-0.16666666666667	0
bin	-0.13333333333333	0
bin	-0.1	0
bin	-0.066666666666667	0
bin	-0.033333333333333	0
bin	0	135000
bin	0.033333333333333	0
bin	0.066666666666667	0
bin	0.1	0
bin	0.13333333333333	0
bin	0.16666666666667	0
bin	0.2	0
bin	0.23333333333333	0
bin	0.26666666666667	0
bin	0.3	0
bin	0.33333333333333	0
bin	0.36666666666667	0
bin	0.4	0
bin	0.43333333333333	0
bin	0.46666666666667	0
bin	0.5	0
scalar University.profLaptop.ppp[0].queue 	dropPk:count 	0
attr interpolationmode  none
attr source  dropPkByQueue
attr title  "dropped packets, count"
scalar University.profLaptop.ppp[0].queue 	dropPk:sum(packetBytes) 	0
attr interpolationmode  none
attr source  dropPkByQueue
attr title  "dropped packets, sum(packetBytes)"
scalar University.profLaptop.ppp[0].queue 	queueLength:max 	-nan
attr interpolationmode  sample-hold
attr title  "queue length, max"
scalar University.profLaptop.ppp[0].queue 	queueLength:timeavg 	-nan
attr interpolationmode  sample-hold
attr title  "queue length, timeavg"
scalar University.profLaptop.ppp[0].queue 	rcvdPk:count 	135000
attr interpolationmode  none
attr title  "received packets, count"
scalar University.profLaptop.ppp[0].queue 	rcvdPk:sum(packetBytes) 	192780000
attr interpolationmode  none
attr title  "received packets, sum(packetBytes)"
scalar University.profLaptop.ppp[0].ppp 	rcvdPkFromHL:count 	135000
attr interpolationmode  none
attr source  packetReceivedFromUpper
attr title  "packets received from higher layer, count"
scalar University.profLaptop.ppp[0].ppp 	rcvdPkFromHL:sum(packetBytes) 	192780000
attr interpolationmode  none
attr source  packetReceivedFromUpper
attr title  "packets received from higher layer, sum(packetBytes)"
scalar University.profLaptop.ppp[0].ppp 	passedUpPk:count 	134918
attr interpolationmode  none
attr source  packetSentToUpper
attr title  "packets passed to higher layer, count"
scalar University.profLaptop.ppp[0].ppp 	passedUpPk:sum(packetBytes) 	192662904
attr interpolationmode  none
attr source  packetSentToUpper
attr title  "packets passed to higher layer, sum(packetBytes)"
scalar University.profLaptop.ppp[0].ppp 	txPk:count 	135000
attr interpolationmode  none
attr source  packetSentToLower
attr title  "packets transmitted, count"
scalar University.profLaptop.ppp[0].ppp 	txPk:sum(packetBytes) 	193725000
attr interpolationmode  none
attr source  packetSentToLower
attr title  "packets transmitted, sum(packetBytes)"
scalar University.profLaptop.ppp[0].ppp 	droppedPkBitError:count 	0
attr interpolationmode  none
attr source  dropPkBitError
attr title  "packets dropped/bit error, count"
scalar University.profLaptop.ppp[0].ppp 	droppedPkBitError:sum(packetBytes) 	0
attr interpolationmode  none
attr source  dropPkBitError
attr title  "packets dropped/bit error, sum(packetBytes)"
scalar University.profLaptop.ppp[0].ppp 	droppedPkIfaceDown:count 	0
attr interpolationmode  none
attr source  dropPkIfaceDown
attr title  "packets dropped/interface down, count"
scalar University.profLaptop.ppp[0].ppp 	droppedPkIfaceDown:sum(packetBytes) 	0
attr interpolationmode  none
attr source  dropPkIfaceDown
attr title  "packets dropped/interface down, sum(packetBytes)"
scalar University.profLaptop.ppp[0].ppp 	rxPkOk:count 	134918
attr interpolationmode  none
attr source  rxPkOk
attr title  "packets received OK, count"
scalar University.profLaptop.ppp[0].ppp 	rxPkOk:sum(packetBytes) 	193607330
attr interpolationmode  none
attr source  rxPkOk
attr title  "packets received OK, sum(packetBytes)"
scalar University.profLaptop.ppp[0].ppp 	txState:timeavg 	0
attr interpolationmode  sample-hold
attr title  "tx state, timeavg"
scalar University.profLaptop.udpApp[0] 	"packets sent" 	135125
scalar University.profLaptop.udpApp[0] 	"packets received" 	135043
scalar University.profLaptop.udpApp[0] 	sentPk:count 	135000
attr interpolationmode  none
attr source  sentPk
attr title  "packets sent, count"
scalar University.profLaptop.udpApp[0] 	sentPk:sum(packetBytes) 	189000000
attr interpolationmode  none
attr source  sentPk
attr title  "packets sent, sum(packetBytes)"
scalar University.profLaptop.udpApp[0] 	rcvdPk:count 	134918
attr interpolationmode  none
attr source  rcvdPk
attr title  "packets received, count"
scalar University.profLaptop.udpApp[0] 	rcvdPk:sum(packetBytes) 	188885200
attr interpolationmode  none
attr source  rcvdPk
attr title  "packets received, sum(packetBytes)"
statistic University.profLaptop.udpApp[0] 	rcvdPkLifetime:stats
field count 134918
field mean 0.017307291414271
field stddev 0.0036754059582729
field sum 2335.0651430306
field sqrsum 42.236193896538
field min 0.016345629585
field max 0.219892848986
attr interpolationmode  none
attr source  messageAge(rcvdPk)
attr title  "received packet lifetime, stats"
attr unit  s
scalar University.profLaptop.udp 	droppedPkBadChecksum:count 	0
attr interpolationmode  none
attr title  "packets dropped (checksum error), count"
scalar University.profLaptop.udp 	droppedPkWrongPort:count 	0
attr interpolationmode  none
attr title  "packets dropped (wrong port), count"
scalar University.profLaptop.udp 	passedUpPk:count 	134918
attr interpolationmode  none
attr title  "packets passed up, count"
scalar University.profLaptop.udp 	sentPk:count 	135000
attr interpolationmode  none
attr source  sentPk
attr title  "packets sent, count"
scalar University.profLaptop.udp 	sentPk:sum(packetBytes) 	190080000
attr interpolationmode  none
attr source  sentPk
attr title  "packets sent, sum(packetBytes)"
scalar University.profLaptop.udp 	rcvdPk:count 	134918
attr interpolationmode  none
attr source  rcvdPk
attr title  "packets received, count"
scalar University.profLaptop.udp 	rcvdPk:sum(packetBytes) 	189964544
attr interpolationmode  none
attr source  rcvdPk
attr title  "packets received, sum(packetBytes)"
scalar University.Server.networkLayer.arp 	initiatedARPResolution:count 	0
attr title  "ARP initiated resolutions, count"
scalar University.Server.networkLayer.arp 	sentReply:count 	0
attr title  "ARP replies sent, count"
scalar University.Server.networkLayer.arp 	sentReq:count 	0
attr title  "ARP request sent, count"
scalar University.Server.networkLayer.arp 	failedARPResolution:count 	0
attr title  "ARP failed resolutions, count"
scalar University.Server.networkLayer.arp 	completedARPResolution:count 	0
attr title  "ARP completed resolutions, count"
scalar University.Server.lo0.lo 	rcvdPkFromHL:count 	0
attr interpolationmode  none
attr source  packetReceivedFromUpper
attr title  "packets received from higher layer, count"
scalar University.Server.lo0.lo 	rcvdPkFromHL:sum(packetBytes) 	0
attr interpolationmode  none
attr source  packetReceivedFromUpper
attr title  "packets received from higher layer, sum(packetBytes)"
scalar University.Server.lo0.lo 	passedUpPk:count 	0
attr interpolationmode  none
attr source  packetSentToUpper
attr title  "packets passed to higher layer, count"
scalar University.Server.lo0.lo 	passedUpPk:sum(packetBytes) 	0
attr interpolationmode  none
attr source  packetSentToUpper
attr title  "packets passed to higher layer, sum(packetBytes)"
scalar University.Server.lo0.lo 	droppedPkBitError:count 	0
attr interpolationmode  none
attr source  dropPkBitError
attr title  "packets dropped/bit error, count"
scalar University.Server.lo0.lo 	droppedPkBitError:sum(packetBytes) 	0
attr interpolationmode  none
attr source  dropPkBitError
attr title  "packets dropped/bit error, sum(packetBytes)"
scalar University.Server.ppp[0].outputHook[0] 	duration 	5405.0001424942
scalar University.Server.ppp[0].outputHook[0] 	"total packets" 	1728003
scalar University.Server.ppp[0].outputHook[0] 	"total bits" 	16460639936
scalar University.Server.ppp[0].outputHook[0] 	"avg throughput (bit/s)" 	3045446.7163814
scalar University.Server.ppp[0].outputHook[0] 	"avg packets/s" 	319.70452441146
scalar University.Server.ppp[0].inputHook[0] 	duration 	5405.0001424942
scalar University.Server.ppp[0].inputHook[0] 	"total packets" 	1529849
scalar University.Server.ppp[0].inputHook[0] 	"total bits" 	4618398520
scalar University.Server.ppp[0].inputHook[0] 	"avg throughput (bit/s)" 	854467.78875917
scalar University.Server.ppp[0].inputHook[0] 	"avg packets/s" 	283.04328578501
statistic University.Server.ppp[0].queue 	queueingTime:histogram
field count 1636406
field mean 0.00016905438714661
field stddev 0.00082494641083951
field sum 276.64161345304
field sqrsum 1.1604009418552
field min 0
field max 0.012056
attr interpolationmode  none
attr title  "queueing time, histogram"
bin	-INF	0
bin	-6.028e-05	0
bin	-5.2242666666667e-05	0
bin	-4.4205333333333e-05	0
bin	-3.6168e-05	0
bin	-2.8130666666667e-05	0
bin	-2.0093333333333e-05	0
bin	-1.2056e-05	0
bin	-4.0186666666667e-06	1066420
bin	4.0186666666667e-06	113
bin	1.2056e-05	141
bin	2.0093333333333e-05	213
bin	2.8130666666667e-05	365
bin	3.6168e-05	128
bin	4.4205333333333e-05	184
bin	5.2242666666667e-05	425
bin	6.028e-05	184
bin	6.8317333333333e-05	129
bin	7.6354666666667e-05	156
bin	8.4392e-05	10884
bin	9.2429333333333e-05	121
bin	0.00010046666666667	114
bin	0.000108504	276
bin	0.00011654133333333	374935
bin	0.00012457866666667	186
bin	0.000132616	221
bin	0.00014065333333333	398
bin	0.00014869066666667	329
bin	0.000156728	186
bin	0.00016476533333333	248
bin	0.00017280266666667	9344
bin	0.00018084	170706
scalar University.Server.ppp[0].queue 	dropPk:count 	90059
attr interpolationmode  none
attr source  dropPkByQueue
attr title  "dropped packets, count"
scalar University.Server.ppp[0].queue 	dropPk:sum(packetBytes) 	134970895
attr interpolationmode  none
attr source  dropPkByQueue
attr title  "dropped packets, sum(packetBytes)"
scalar University.Server.ppp[0].queue 	queueLength:max 	100
attr interpolationmode  sample-hold
attr title  "queue length, max"
scalar University.Server.ppp[0].queue 	queueLength:timeavg 	0.05123000207236
attr interpolationmode  sample-hold
attr title  "queue length, timeavg"
scalar University.Server.ppp[0].queue 	rcvdPk:count 	1726465
attr interpolationmode  none
attr title  "received packets, count"
scalar University.Server.ppp[0].queue 	rcvdPk:sum(packetBytes) 	2056149706
attr interpolationmode  none
attr title  "received packets, sum(packetBytes)"
scalar University.Server.ppp[0].ppp 	rcvdPkFromHL:count 	1636406
attr interpolationmode  none
attr source  packetReceivedFromUpper
attr title  "packets received from higher layer, count"
scalar University.Server.ppp[0].ppp 	rcvdPkFromHL:sum(packetBytes) 	1921178811
attr interpolationmode  none
attr source  packetReceivedFromUpper
attr title  "packets received from higher layer, sum(packetBytes)"
scalar University.Server.ppp[0].ppp 	passedUpPk:count 	1528470
attr interpolationmode  none
attr source  packetSentToUpper
attr title  "packets passed to higher layer, count"
scalar University.Server.ppp[0].ppp 	passedUpPk:sum(packetBytes) 	576373748
attr interpolationmode  none
attr source  packetSentToUpper
attr title  "packets passed to higher layer, sum(packetBytes)"
scalar University.Server.ppp[0].ppp 	txPk:count 	1636406
attr interpolationmode  none
attr source  packetSentToLower
attr title  "packets transmitted, count"
scalar University.Server.ppp[0].ppp 	txPk:sum(packetBytes) 	1932633653
attr interpolationmode  none
attr source  packetSentToLower
attr title  "packets transmitted, sum(packetBytes)"
scalar University.Server.ppp[0].ppp 	droppedPkBitError:count 	0
attr interpolationmode  none
attr source  dropPkBitError
attr title  "packets dropped/bit error, count"
scalar University.Server.ppp[0].ppp 	droppedPkBitError:sum(packetBytes) 	0
attr interpolationmode  none
attr source  dropPkBitError
attr title  "packets dropped/bit error, sum(packetBytes)"
scalar University.Server.ppp[0].ppp 	droppedPkIfaceDown:count 	0
attr interpolationmode  none
attr source  dropPkIfaceDown
attr title  "packets dropped/interface down, count"
scalar University.Server.ppp[0].ppp 	droppedPkIfaceDown:sum(packetBytes) 	0
attr interpolationmode  none
attr source  dropPkIfaceDown
attr title  "packets dropped/interface down, sum(packetBytes)"
scalar University.Server.ppp[0].ppp 	rxPkOk:count 	1528470
attr interpolationmode  none
attr source  rxPkOk
attr title  "packets received OK, count"
scalar University.Server.ppp[0].ppp 	rxPkOk:sum(packetBytes) 	587073038
attr interpolationmode  none
attr source  rxPkOk
attr title  "packets received OK, sum(packetBytes)"
scalar University.Server.ppp[0].ppp 	txState:timeavg 	0.028631650838428
attr interpolationmode  sample-hold
attr title  "tx state, timeavg"
scalar University.Server.tcpApp[0] 	sentPk:count 	1984
attr interpolationmode  none
attr source  sentPk
attr title  "packets sent, count"
scalar University.Server.tcpApp[0] 	sentPk:sum(packetBytes) 	1642675371
attr interpolationmode  none
attr source  sentPk
attr title  "packets sent, sum(packetBytes)"
scalar University.Server.tcpApp[0] 	rcvdPk:count 	1984
attr interpolationmode  none
attr source  rcvdPk
attr title  "packets received, count"
scalar University.Server.tcpApp[0] 	rcvdPk:sum(packetBytes) 	1984
attr interpolationmode  none
attr source  rcvdPk
attr title  "packets received, sum(packetBytes)"
statistic University.Server.tcpApp[0] 	endToEndDelay:histogram
field count 1984
field mean 0.073985073408731
field stddev 0.0031789375276877
field sum 146.78638564292
field sqrsum 10.880041008859
field min 0.072818342774
field max 0.115001412264
attr interpolationmode  none
attr source  messageAge(rcvdPk)
attr title  "end-to-end delay, histogram"
attr unit  s
bin	-INF	0
bin	0.066490642619	0
bin	0.067334335973	0
bin	0.068178029327	0
bin	0.069021722681	0
bin	0.069865416035	0
bin	0.070709109389	0
bin	0.071552802743	0
bin	0.072396496097	1441
bin	0.073240189451	144
bin	0.074083882805	80
bin	0.074927576159	56
bin	0.075771269513	42
bin	0.076614962867	55
bin	0.077458656221	53
bin	0.078302349575	39
bin	0.079146042929	15
bin	0.079989736283	10
bin	0.080833429637	2
bin	0.081677122991	6
bin	0.082520816345	3
bin	0.083364509699	1
bin	0.084208203053	5
bin	0.085051896407	6
bin	0.085895589761	1
bin	0.086739283115	2
bin	0.087582976469	3
bin	0.088426669823	0
bin	0.089270363177	2
bin	0.090114056531	3
bin	0.090957749885	0
bin	0.091801443239	15
scalar University.Server.tcpApp[1] 	sentPk:count 	477
attr interpolationmode  none
attr source  sentPk
attr title  "packets sent, count"
scalar University.Server.tcpApp[1] 	sentPk:sum(packetBytes) 	477
attr interpolationmode  none
attr source  sentPk
attr title  "packets sent, sum(packetBytes)"
scalar University.Server.tcpApp[1] 	rcvdPk:count 	477
attr interpolationmode  none
attr source  rcvdPk
attr title  "packets received, count"
scalar University.Server.tcpApp[1] 	rcvdPk:sum(packetBytes) 	500170752
attr interpolationmode  none
attr source  rcvdPk
attr title  "packets received, sum(packetBytes)"
statistic University.Server.tcpApp[1] 	endToEndDelay:histogram
field count 477
field mean 11.036950722137
field stddev 2.88990207883
field sum 5264.6254944593
field sqrsum 62080.742348859
field min 1.638337672415
field max 21.86609215848
attr interpolationmode  none
attr source  messageAge(rcvdPk)
attr title  "end-to-end delay, histogram"
attr unit  s
bin	-INF	0
bin	-5.6705558738395	0
bin	-4.4600810052616	0
bin	-3.2496061366836	0
bin	-2.0391312681057	0
bin	-0.82865639952777	0
bin	0.38181846905016	0
bin	1.5922933376281	3
bin	2.802768206206	9
bin	4.013243074784	9
bin	5.2237179433619	17
bin	6.4341928119398	16
bin	7.6446676805178	23
bin	8.8551425490957	48
bin	10.065617417674	122
bin	11.276092286252	113
bin	12.486567154829	58
bin	13.697042023407	28
bin	14.907516891985	13
bin	16.117991760563	6
bin	17.328466629141	7
bin	18.538941497719	1
bin	19.749416366297	0
bin	20.959891234875	4
bin	22.170366103453	0
bin	23.380840972031	0
bin	24.591315840609	0
bin	25.801790709187	0
bin	27.012265577765	0
bin	28.222740446343	0
bin	29.433215314921	0
bin	30.643690183498	0
scalar University.CCTV.networkLayer.arp 	initiatedARPResolution:count 	45
attr title  "ARP initiated resolutions, count"
scalar University.CCTV.networkLayer.arp 	sentReply:count 	0
attr title  "ARP replies sent, count"
scalar University.CCTV.networkLayer.arp 	sentReq:count 	45
attr title  "ARP request sent, count"
scalar University.CCTV.networkLayer.arp 	failedARPResolution:count 	0
attr title  "ARP failed resolutions, count"
scalar University.CCTV.networkLayer.arp 	completedARPResolution:count 	45
attr title  "ARP completed resolutions, count"
scalar University.CCTV.lo0.lo 	rcvdPkFromHL:count 	0
attr interpolationmode  none
attr source  packetReceivedFromUpper
attr title  "packets received from higher layer, count"
scalar University.CCTV.lo0.lo 	rcvdPkFromHL:sum(packetBytes) 	0
attr interpolationmode  none
attr source  packetReceivedFromUpper
attr title  "packets received from higher layer, sum(packetBytes)"
scalar University.CCTV.lo0.lo 	passedUpPk:count 	0
attr interpolationmode  none
attr source  packetSentToUpper
attr title  "packets passed to higher layer, count"
scalar University.CCTV.lo0.lo 	passedUpPk:sum(packetBytes) 	0
attr interpolationmode  none
attr source  packetSentToUpper
attr title  "packets passed to higher layer, sum(packetBytes)"
scalar University.CCTV.lo0.lo 	droppedPkBitError:count 	0
attr interpolationmode  none
attr source  dropPkBitError
attr title  "packets dropped/bit error, count"
scalar University.CCTV.lo0.lo 	droppedPkBitError:sum(packetBytes) 	0
attr interpolationmode  none
attr source  dropPkBitError
attr title  "packets dropped/bit error, sum(packetBytes)"
scalar University.CCTV.eth[0].outputHook[0] 	duration 	5405.0001424942
scalar University.CCTV.eth[0].outputHook[0] 	"total packets" 	945914
scalar University.CCTV.eth[0].outputHook[0] 	"total bits" 	11229355200
scalar University.CCTV.eth[0].outputHook[0] 	"avg throughput (bit/s)" 	2077586.4762176
scalar University.CCTV.eth[0].outputHook[0] 	"avg packets/s" 	175.00721092738
scalar University.CCTV.eth[0].inputHook[0] 	duration 	5405.0001424942
scalar University.CCTV.eth[0].inputHook[0] 	"total packets" 	47
scalar University.CCTV.eth[0].inputHook[0] 	"total bits" 	10528
scalar University.CCTV.eth[0].inputHook[0] 	"avg throughput (bit/s)" 	1.9478260356052
scalar University.CCTV.eth[0].inputHook[0] 	"avg packets/s" 	0.0086956519446661
scalar University.CCTV.eth[0].mac 	"simulated time" 	5405.0001424942
scalar University.CCTV.eth[0].mac 	full-duplex 	1
scalar University.CCTV.eth[0].mac 	"frames/sec sent" 	175.00721092738
scalar University.CCTV.eth[0].mac 	"frames/sec rcvd" 	0.0086956519446661
scalar University.CCTV.eth[0].mac 	"bits/sec sent" 	2102788.740123
scalar University.CCTV.eth[0].mac 	"bits/sec rcvd" 	4.452173795669
scalar University.CCTV.eth[0].mac 	"rx channel idle (%)" 	99.999994991304
scalar University.CCTV.eth[0].mac 	"rx channel utilization (%)" 	5.0086955201276e-06
scalar University.CCTV.eth[0].mac 	rxPkFromHL:count 	945045
attr interpolationmode  none
attr source  rxPkFromHL
attr title  "packet bytes from higher layer, count"
scalar University.CCTV.eth[0].mac 	rxPkFromHL:sum(packetBytes) 	1419392880
attr interpolationmode  none
attr source  rxPkFromHL
attr title  "packet bytes from higher layer, sum(packetBytes)"
scalar University.CCTV.eth[0].mac 	rxPausePkUnits:count 	0
attr interpolationmode  none
attr title  "pause units received, count"
scalar University.CCTV.eth[0].mac 	rxPausePkUnits:sum 	0
attr interpolationmode  none
attr title  "pause units received, sum"
scalar University.CCTV.eth[0].mac 	txPausePkUnits:count 	0
attr interpolationmode  none
attr title  "pause units sent, count"
scalar University.CCTV.eth[0].mac 	txPausePkUnits:sum 	0
attr interpolationmode  none
attr title  "pause units sent, sum"
scalar University.CCTV.eth[0].mac 	txPk:count 	945045
attr interpolationmode  none
attr source  txPk
attr title  "packets transmitted, count"
scalar University.CCTV.eth[0].mac 	txPk:sum(packetBytes) 	1419392880
attr interpolationmode  none
attr source  txPk
attr title  "packets transmitted, sum(packetBytes)"
scalar University.CCTV.eth[0].mac 	droppedPkNotForUs:count 	0
attr interpolationmode  none
attr source  dropPkNotForUs
attr title  "packets dropped/not for us, count"
scalar University.CCTV.eth[0].mac 	droppedPkNotForUs:sum(packetBytes) 	0
attr interpolationmode  none
attr source  dropPkNotForUs
attr title  "packets dropped/not for us, sum(packetBytes)"
scalar University.CCTV.eth[0].mac 	passedUpPk:count 	45
attr interpolationmode  none
attr source  packetSentToUpper
attr title  "packets passed to higher layer, count"
scalar University.CCTV.eth[0].mac 	passedUpPk:sum(packetBytes) 	2880
attr interpolationmode  none
attr source  packetSentToUpper
attr title  "packets passed to higher layer, sum(packetBytes)"
scalar University.CCTV.eth[0].mac 	droppedPkBitError:count 	0
attr interpolationmode  none
attr source  dropPkBitError
attr title  "packets dropped/bit error, count"
scalar University.CCTV.eth[0].mac 	droppedPkBitError:sum(packetBytes) 	0
attr interpolationmode  none
attr source  dropPkBitError
attr title  "packets dropped/bit error, sum(packetBytes)"
scalar University.CCTV.eth[0].mac 	droppedPkIfaceDown:count 	0
attr interpolationmode  none
attr source  dropPkIfaceDown
attr title  "packets dropped/interface down, count"
scalar University.CCTV.eth[0].mac 	droppedPkIfaceDown:sum(packetBytes) 	0
attr interpolationmode  none
attr source  dropPkIfaceDown
attr title  "packets dropped/interface down, sum(packetBytes)"
scalar University.CCTV.eth[0].mac 	rxPkOk:count 	45
attr interpolationmode  none
attr source  rxPkOk
attr title  "packets received OK, count"
scalar University.CCTV.eth[0].mac 	rxPkOk:sum(packetBytes) 	2880
attr interpolationmode  none
attr source  rxPkOk
attr title  "packets received OK, sum(packetBytes)"
scalar University.CCTV.eth[0].encap 	pauseSent:count 	0
attr title  "pause sent, count"
scalar University.CCTV.eth[0].encap 	pauseSent:sum 	0
attr title  "pause sent, sum"
scalar University.CCTV.eth[0].encap 	decapPk:count 	45
attr interpolationmode  none
attr source  decapPk
attr title  "packets decapsulated, count"
scalar University.CCTV.eth[0].encap 	decapPk:sum(packetBytes) 	1260
attr interpolationmode  none
attr source  decapPk
attr title  "packets decapsulated, sum(packetBytes)"
scalar University.CCTV.eth[0].encap 	encapPk:count 	945045
attr interpolationmode  none
attr source  encapPk
attr title  "packets encapsulated, count"
scalar University.CCTV.eth[0].encap 	encapPk:sum(packetBytes) 	1402381260
attr interpolationmode  none
attr source  encapPk
attr title  "packets encapsulated, sum(packetBytes)"
scalar University.CCTV.udpApp[0] 	reqStreamBytes:count 	0
attr interpolationmode  none
attr title  "requested stream bytes, count"
scalar University.CCTV.udpApp[0] 	reqStreamBytes:sum 	0
attr interpolationmode  none
attr title  "requested stream bytes, sum"
scalar University.CCTV.udpApp[0] 	sentPk:count 	135000
attr interpolationmode  none
attr source  sentPk
attr title  "packets sent, count"
scalar University.CCTV.udpApp[0] 	sentPk:sum(packetBytes) 	1382400000
attr interpolationmode  none
attr source  sentPk
attr title  "packets sent, sum(packetBytes)"
scalar University.CCTV.udp 	droppedPkBadChecksum:count 	0
attr interpolationmode  none
attr title  "packets dropped (checksum error), count"
scalar University.CCTV.udp 	droppedPkWrongPort:count 	0
attr interpolationmode  none
attr title  "packets dropped (wrong port), count"
scalar University.CCTV.udp 	passedUpPk:count 	0
attr interpolationmode  none
attr title  "packets passed up, count"
scalar University.CCTV.udp 	sentPk:count 	135000
attr interpolationmode  none
attr source  sentPk
attr title  "packets sent, count"
scalar University.CCTV.udp 	sentPk:sum(packetBytes) 	1383480000
attr interpolationmode  none
attr source  sentPk
attr title  "packets sent, sum(packetBytes)"
scalar University.CCTV.udp 	rcvdPk:count 	0
attr interpolationmode  none
attr source  rcvdPk
attr title  "packets received, count"
scalar University.CCTV.udp 	rcvdPk:sum(packetBytes) 	0
attr interpolationmode  none
attr source  rcvdPk
attr title  "packets received, sum(packetBytes)"
scalar University.whttpStudents[0].networkLayer.arp 	initiatedARPResolution:count 	1
attr title  "ARP initiated resolutions, count"
scalar University.whttpStudents[0].networkLayer.arp 	sentReply:count 	41
attr title  "ARP replies sent, count"
scalar University.whttpStudents[0].networkLayer.arp 	sentReq:count 	1
attr title  "ARP request sent, count"
scalar University.whttpStudents[0].networkLayer.arp 	failedARPResolution:count 	0
attr title  "ARP failed resolutions, count"
scalar University.whttpStudents[0].networkLayer.arp 	completedARPResolution:count 	417
attr title  "ARP completed resolutions, count"
scalar University.whttpStudents[0].lo0.lo 	rcvdPkFromHL:count 	0
attr interpolationmode  none
attr source  packetReceivedFromUpper
attr title  "packets received from higher layer, count"
scalar University.whttpStudents[0].lo0.lo 	rcvdPkFromHL:sum(packetBytes) 	0
attr interpolationmode  none
attr source  packetReceivedFromUpper
attr title  "packets received from higher layer, sum(packetBytes)"
scalar University.whttpStudents[0].lo0.lo 	passedUpPk:count 	0
attr interpolationmode  none
attr source  packetSentToUpper
attr title  "packets passed to higher layer, count"
scalar University.whttpStudents[0].lo0.lo 	passedUpPk:sum(packetBytes) 	0
attr interpolationmode  none
attr source  packetSentToUpper
attr title  "packets passed to higher layer, sum(packetBytes)"
scalar University.whttpStudents[0].lo0.lo 	droppedPkBitError:count 	0
attr interpolationmode  none
attr source  dropPkBitError
attr title  "packets dropped/bit error, count"
scalar University.whttpStudents[0].lo0.lo 	droppedPkBitError:sum(packetBytes) 	0
attr interpolationmode  none
attr source  dropPkBitError
attr title  "packets dropped/bit error, sum(packetBytes)"
scalar University.whttpStudents[0].wlan[0].outputHook[0] 	duration 	5405.0001424942
scalar University.whttpStudents[0].wlan[0].outputHook[0] 	"total packets" 	143490
scalar University.whttpStudents[0].wlan[0].outputHook[0] 	"total bits" 	45930408
scalar University.whttpStudents[0].wlan[0].outputHook[0] 	"avg throughput (bit/s)" 	8497.762588181
scalar University.whttpStudents[0].wlan[0].outputHook[0] 	"avg packets/s" 	26.547640373194
scalar University.whttpStudents[0].wlan[0].inputHook[0] 	duration 	5405.0001424942
scalar University.whttpStudents[0].wlan[0].inputHook[0] 	"total packets" 	143628
scalar University.whttpStudents[0].wlan[0].inputHook[0] 	"total bits" 	1704337104
scalar University.whttpStudents[0].wlan[0].inputHook[0] 	"avg throughput (bit/s)" 	315326.00537796
scalar University.whttpStudents[0].wlan[0].inputHook[0] 	"avg packets/s" 	26.573172287415
scalar University.whttpStudents[0].wlan[0].agent 	dropConfirm:count 	0
attr title  "dropped confirms, count"
scalar University.whttpStudents[0].wlan[0].agent 	acceptConfirm:count 	24
attr title  "accepted confirms, count"
scalar University.whttpStudents[0].wlan[0].agent 	sentRequest:count 	24
attr title  "sent requests, count"
scalar University.whttpStudents[0].wlan[0].mgmt 	dropPkByQueue:count 	0
attr interpolationmode  none
attr source  dropPkByQueue
attr title  "packets dropped by queue, count"
scalar University.whttpStudents[0].wlan[0].mgmt 	dropPkByQueue:sum(packetBytes) 	0
attr interpolationmode  none
attr source  dropPkByQueue
attr title  "packets dropped by queue, sum(packetBytes)"
scalar University.whttpStudents[0].wlan[0].mgmt 	dataQueueLen:max 	11
attr interpolationmode  sample-hold
attr title  "data queue length, max"
scalar University.whttpStudents[0].wlan[0].mgmt 	dataQueueLen:timeavg 	0.0039372230511811
attr interpolationmode  sample-hold
attr title  "data queue length, timeavg"
scalar University.whttpStudents[0].wlan[0].mac 	"number of received packets" 	143346
scalar University.whttpStudents[0].wlan[0].mac 	"number of collisions" 	107108
scalar University.whttpStudents[0].wlan[0].mac 	"number of internal collisions" 	0
scalar University.whttpStudents[0].wlan[0].mac 	"number of retry for AC 0" 	8893
scalar University.whttpStudents[0].wlan[0].mac 	"sent and received bits" 	94153992
scalar University.whttpStudents[0].wlan[0].mac 	"sent packet within AC 0" 	143517
scalar University.whttpStudents[0].wlan[0].mac 	"sent in TXOP " 	0
scalar University.whttpStudents[0].wlan[0].mac 	"sentWithoutRetry AC 0" 	134678
scalar University.whttpStudents[0].wlan[0].mac 	"numGivenUp AC 0" 	0
scalar University.whttpStudents[0].wlan[0].mac 	"numDropped AC 0" 	0
scalar University.whttpStudents[0].wlan[0].mac 	rcvdPkFromHL:count 	143522
attr interpolationmode  none
attr source  packetReceivedFromUpper
attr title  "packets received from higher layer, count"
scalar University.whttpStudents[0].wlan[0].mac 	rcvdPkFromHL:sum(packetBytes) 	11769097
attr interpolationmode  none
attr source  packetReceivedFromUpper
attr title  "packets received from higher layer, sum(packetBytes)"
scalar University.whttpStudents[0].wlan[0].mac 	passedUpPk:count 	197083
attr interpolationmode  none
attr source  packetSentToUpper
attr title  "packets passed to higher layer, count"
[...]
attr title  "ARP completed resolutions, count"
scalar University.whostFTP.lo0.lo 	rcvdPkFromHL:count 	0
attr interpolationmode  none
attr source  packetReceivedFromUpper
attr title  "packets received from higher layer, count"
scalar University.whostFTP.lo0.lo 	rcvdPkFromHL:sum(packetBytes) 	0
attr interpolationmode  none
attr source  packetReceivedFromUpper
attr title  "packets received from higher layer, sum(packetBytes)"
scalar University.whostFTP.lo0.lo 	passedUpPk:count 	0
attr interpolationmode  none
attr source  packetSentToUpper
attr title  "packets passed to higher layer, count"
scalar University.whostFTP.lo0.lo 	passedUpPk:sum(packetBytes) 	0
attr interpolationmode  none
attr source  packetSentToUpper
attr title  "packets passed to higher layer, sum(packetBytes)"
scalar University.whostFTP.lo0.lo 	droppedPkBitError:count 	0
attr interpolationmode  none
attr source  dropPkBitError
attr title  "packets dropped/bit error, count"
scalar University.whostFTP.lo0.lo 	droppedPkBitError:sum(packetBytes) 	0
attr interpolationmode  none
attr source  dropPkBitError
attr title  "packets dropped/bit error, sum(packetBytes)"
scalar University.whostFTP.wlan[0].outputHook[0] 	duration 	5405.0001424942
scalar University.whostFTP.wlan[0].outputHook[0] 	"total packets" 	438885
scalar University.whostFTP.wlan[0].outputHook[0] 	"total bits" 	5232127360
scalar University.whostFTP.wlan[0].outputHook[0] 	"avg throughput (bit/s)" 	968016.13729201
scalar University.whostFTP.wlan[0].outputHook[0] 	"avg packets/s" 	81.19981284542
scalar University.whostFTP.wlan[0].inputHook[0] 	duration 	5405.0001424942
scalar University.whostFTP.wlan[0].inputHook[0] 	"total packets" 	348631
scalar University.whostFTP.wlan[0].inputHook[0] 	"total bits" 	111555176
scalar University.whostFTP.wlan[0].inputHook[0] 	"avg throughput (bit/s)" 	20639.254960042
scalar University.whostFTP.wlan[0].inputHook[0] 	"avg packets/s" 	64.501570917465
scalar University.whostFTP.wlan[0].agent 	dropConfirm:count 	0
attr title  "dropped confirms, count"
scalar University.whostFTP.wlan[0].agent 	acceptConfirm:count 	24
attr title  "accepted confirms, count"
scalar University.whostFTP.wlan[0].agent 	sentRequest:count 	24
attr title  "sent requests, count"
scalar University.whostFTP.wlan[0].mgmt 	dropPkByQueue:count 	82437
attr interpolationmode  none
attr source  dropPkByQueue
attr title  "packets dropped by queue, count"
scalar University.whostFTP.wlan[0].mgmt 	dropPkByQueue:sum(packetBytes) 	126994470
attr interpolationmode  none
attr source  dropPkByQueue
attr title  "packets dropped by queue, sum(packetBytes)"
scalar University.whostFTP.wlan[0].mgmt 	dataQueueLen:max 	50
attr interpolationmode  sample-hold
attr title  "data queue length, max"
scalar University.whostFTP.wlan[0].mgmt 	dataQueueLen:timeavg 	1.1122122930563
attr interpolationmode  sample-hold
attr title  "data queue length, timeavg"
scalar University.whostFTP.wlan[0].mac 	"number of received packets" 	348978
scalar University.whostFTP.wlan[0].mac 	"number of collisions" 	77985
scalar University.whostFTP.wlan[0].mac 	"number of internal collisions" 	0
scalar University.whostFTP.wlan[0].mac 	"number of retry for AC 0" 	37962
scalar University.whostFTP.wlan[0].mac 	"sent and received bits" 	4362475424
scalar University.whostFTP.wlan[0].mac 	"sent packet within AC 0" 	356379
scalar University.whostFTP.wlan[0].mac 	"sent in TXOP " 	0
scalar University.whostFTP.wlan[0].mac 	"sentWithoutRetry AC 0" 	324211
scalar University.whostFTP.wlan[0].mac 	"numGivenUp AC 0" 	1
scalar University.whostFTP.wlan[0].mac 	"numDropped AC 0" 	0
scalar University.whostFTP.wlan[0].mac 	rcvdPkFromHL:count 	355783
attr interpolationmode  none
attr source  packetReceivedFromUpper
attr title  "packets received from higher layer, count"
scalar University.whostFTP.wlan[0].mac 	rcvdPkFromHL:sum(packetBytes) 	544387648
attr interpolationmode  none
attr source  packetReceivedFromUpper
attr title  "packets received from higher layer, sum(packetBytes)"
scalar University.whostFTP.wlan[0].mac 	passedUpPk:count 	402166
attr interpolationmode  none
attr source  packetSentToUpper
attr title  "packets passed to higher layer, count"
scalar University.whostFTP.wlan[0].mac 	passedUpPk:sum(packetBytes) 	32761713
attr interpolationmode  none
attr source  packetSentToUpper
attr title  "packets passed to higher layer, sum(packetBytes)"
scalar University.whostFTP.wlan[0].mac 	rcvdPkFromLL:count 	6061170
attr interpolationmode  none
attr source  packetReceivedFromLower
attr title  "packets received from lower layer, count"
scalar University.whostFTP.wlan[0].mac 	rcvdPkFromLL:sum(packetBytes) 	2403024500
attr interpolationmode  none
attr source  packetReceivedFromLower
attr title  "packets received from lower layer, sum(packetBytes)"
scalar University.whostFTP.wlan[0].mac 	sentDownPk:count 	742061
attr interpolationmode  none
attr source  packetSentToLower
attr title  "packets sent to lower layer, count"
scalar University.whostFTP.wlan[0].mac 	sentDownPk:sum(packetBytes) 	607603411
attr interpolationmode  none
attr source  packetSentToLower
attr title  "packets sent to lower layer, sum(packetBytes)"
scalar University.whostFTP.wlan[0].radio 	lossRate:min 	0
attr interpolationmode  backward-sample-hold
attr title  "packet loss rate, min"
scalar University.whostFTP.wlan[0].radio 	lossRate:max 	0.14
attr interpolationmode  backward-sample-hold
attr title  "packet loss rate, max"
scalar University.whostFTP.wlan[0].radio 	lossRate:timeavg 	0.005355289716909
attr interpolationmode  backward-sample-hold
attr title  "packet loss rate, timeavg"
statistic University.whostFTP.wlan[0].radio 	channelNo:histogram
field count 0
field mean -nan
field stddev -nan
field sum 0
field sqrsum 0
field min -nan
field max -nan
attr interpolationmode  sample-hold
attr title  "channel no, histogram"
bin	-INF	0
bin	-0.5	0
bin	-0.46666666666667	0
bin	-0.43333333333333	0
bin	-0.4	0
bin	-0.36666666666667	0
bin	-0.33333333333333	0
bin	-0.3	0
bin	-0.26666666666667	0
bin	-0.23333333333333	0
bin	-0.2	0
bin	-0.16666666666667	0
bin	-0.13333333333333	0
bin	-0.1	0
bin	-0.066666666666667	0
bin	-0.033333333333333	0
bin	0	0
bin	0.033333333333333	0
bin	0.066666666666667	0
bin	0.1	0
bin	0.13333333333333	0
bin	0.16666666666667	0
bin	0.2	0
bin	0.23333333333333	0
bin	0.26666666666667	0
bin	0.3	0
bin	0.33333333333333	0
bin	0.36666666666667	0
bin	0.4	0
bin	0.43333333333333	0
bin	0.46666666666667	0
bin	0.5	0
scalar University.whostFTP.wlan[0].radio 	radioState:count 	13631675
attr interpolationmode  sample-hold
attr title  "radio state (enum), count"
scalar University.whostFTP.wlan[0].radio 	bitrate:min 	-nan
attr interpolationmode  sample-hold
attr title  "tx bitrate, min"
attr unit  bps
scalar University.whostFTP.wlan[0].radio 	bitrate:max 	-nan
attr interpolationmode  sample-hold
attr title  "tx bitrate, max"
attr unit  bps
scalar University.whostFTP.wlan[0].radio 	bitrate:timeavg 	-nan
attr interpolationmode  sample-hold
attr title  "tx bitrate, timeavg"
attr unit  bps
scalar University.whostFTP.tcpApp[0] 	numActiveSessions:max 	0
attr interpolationmode  sample-hold
attr source  sum(connect)
attr title  "number of active sessions, max"
scalar University.whostFTP.tcpApp[0] 	numActiveSessions:timeavg 	-0.0087911768896802
attr interpolationmode  sample-hold
attr source  sum(connect)
attr title  "number of active sessions, timeavg"
scalar University.whostFTP.tcpApp[0] 	numSessions:last 	477
attr source  sum(connect+1)/2
attr title  "total number of sessions, last"
scalar University.whostFTP.tcpApp[0] 	sentPk:count 	477
attr interpolationmode  none
attr source  sentPk
attr title  "packets sent, count"
scalar University.whostFTP.tcpApp[0] 	sentPk:sum(packetBytes) 	500170752
attr interpolationmode  none
attr source  sentPk
attr title  "packets sent, sum(packetBytes)"
scalar University.whostFTP.tcpApp[0] 	rcvdPk:count 	477
attr interpolationmode  none
attr source  rcvdPk
attr title  "packets received, count"
scalar University.whostFTP.tcpApp[0] 	rcvdPk:sum(packetBytes) 	477
attr interpolationmode  none
attr source  rcvdPk
attr title  "packets received, sum(packetBytes)"
statistic University.whostFTP.tcpApp[0] 	endToEndDelay:histogram
field count 477
field mean 11.113871366052
field stddev 2.937187013307
field sum 5301.3166416066
field sqrsum 63024.635379867
field min 1.649601914568
field max 21.879914920116
attr interpolationmode  none
attr source  messageAge(rcvdPk)
attr title  "end-to-end delay, histogram"
attr unit  s
bin	-INF	0
bin	-5.6302832920285	0
bin	-4.4211019274242	0
bin	-3.2119205628198	0
bin	-2.0027391982155	0
bin	-0.79355783361117	0
bin	0.41562353099317	0
bin	1.6248048955975	3
bin	2.8339862602018	9
bin	4.0431676248062	9
bin	5.2523489894105	17
bin	6.4615303540148	16
bin	7.6707117186192	23
bin	8.8798930832235	49
bin	10.089074447828	115
bin	11.298255812432	112
bin	12.507437177036	61
bin	13.716618541641	31
bin	14.925799906245	12
bin	16.13498127085	7
bin	17.344162635454	7
bin	18.553344000058	2
bin	19.762525364663	0
bin	20.971706729267	4
bin	22.180888093871	0
bin	23.390069458475	0
bin	24.59925082308	0
bin	25.808432187684	0
bin	27.017613552288	0
bin	28.226794916893	0
bin	29.435976281497	0
bin	30.645157646101	0
scalar University.accessPoint.relayUnit 	"number of received BPDUs from STP module" 	0
scalar University.accessPoint.relayUnit 	"number of received frames from network (including BPDUs)" 	3331814
scalar University.accessPoint.relayUnit 	"number of dropped frames (including BPDUs)" 	0
scalar University.accessPoint.relayUnit 	"number of delivered BPDUs to the STP module" 	0
scalar University.accessPoint.relayUnit 	"number of dispatched BPDU frames to the network" 	0
scalar University.accessPoint.relayUnit 	"number of dispatched non-BDPU frames to the network" 	3331814
scalar University.accessPoint.wlan[0].outputHook[0] 	duration 	5405.0001424942
scalar University.accessPoint.wlan[0].outputHook[0] 	"total packets" 	1666487
scalar University.accessPoint.wlan[0].outputHook[0] 	"total bits" 	15901753880
scalar University.accessPoint.wlan[0].outputHook[0] 	"avg throughput (bit/s)" 	2942045.0436218
scalar University.accessPoint.wlan[0].outputHook[0] 	"avg packets/s" 	308.32321111299
scalar University.accessPoint.wlan[0].inputHook[0] 	duration 	5405.0001424942
scalar University.accessPoint.wlan[0].inputHook[0] 	"total packets" 	1665327
scalar University.accessPoint.wlan[0].inputHook[0] 	"total bits" 	6386955936
scalar University.accessPoint.wlan[0].inputHook[0] 	"avg throughput (bit/s)" 	1181675.4426675
scalar University.accessPoint.wlan[0].inputHook[0] 	"avg packets/s" 	308.10859502244
scalar University.accessPoint.wlan[0].mgmt 	dropPkByQueue:count 	11947
attr interpolationmode  none
attr source  dropPkByQueue
attr title  "packets dropped by queue, count"
scalar University.accessPoint.wlan[0].mgmt 	dropPkByQueue:sum(packetBytes) 	8386241
attr interpolationmode  none
attr source  dropPkByQueue
attr title  "packets dropped by queue, sum(packetBytes)"
scalar University.accessPoint.wlan[0].mgmt 	dataQueueLen:max 	50
attr interpolationmode  sample-hold
attr title  "data queue length, max"
scalar University.accessPoint.wlan[0].mgmt 	dataQueueLen:timeavg 	2.4765600702586
attr interpolationmode  sample-hold
attr title  "data queue length, timeavg"
scalar University.accessPoint.wlan[0].mac 	"number of received packets" 	1665537
scalar University.accessPoint.wlan[0].mac 	"number of collisions" 	5735
scalar University.accessPoint.wlan[0].mac 	"number of internal collisions" 	0
scalar University.accessPoint.wlan[0].mac 	"number of retry for AC 0" 	109561
scalar University.accessPoint.wlan[0].mac 	"sent and received bits" 	16171010928
scalar University.accessPoint.wlan[0].mac 	"sent packet within AC 0" 	1654352
scalar University.accessPoint.wlan[0].mac 	"sent in TXOP " 	0
scalar University.accessPoint.wlan[0].mac 	"sentWithoutRetry AC 0" 	1549927
scalar University.accessPoint.wlan[0].mac 	"numGivenUp AC 0" 	0
scalar University.accessPoint.wlan[0].mac 	"numDropped AC 0" 	0
scalar University.accessPoint.wlan[0].mac 	rcvdPkFromHL:count 	1707241
attr interpolationmode  none
attr source  packetReceivedFromUpper
attr title  "packets received from higher layer, count"
scalar University.accessPoint.wlan[0].mac 	rcvdPkFromHL:sum(packetBytes) 	2019942402
attr interpolationmode  none
attr source  packetReceivedFromUpper
attr title  "packets received from higher layer, sum(packetBytes)"
scalar University.accessPoint.wlan[0].mac 	passedUpPk:count 	1664017
attr interpolationmode  none
attr source  packetSentToUpper
attr title  "packets passed to higher layer, count"
scalar University.accessPoint.wlan[0].mac 	passedUpPk:sum(packetBytes) 	838933560
attr interpolationmode  none
attr source  packetSentToUpper
attr title  "packets passed to higher layer, sum(packetBytes)"
scalar University.accessPoint.wlan[0].mac 	rcvdPkFromLL:count 	3322560
attr interpolationmode  none
attr source  packetReceivedFromLower
attr title  "packets received from lower layer, count"
scalar University.accessPoint.wlan[0].mac 	rcvdPkFromLL:sum(packetBytes) 	865401212
attr interpolationmode  none
attr source  packetReceivedFromLower
attr title  "packets received from lower layer, sum(packetBytes)"
scalar University.accessPoint.wlan[0].mac 	sentDownPk:count 	3480671
attr interpolationmode  none
attr source  packetSentToLower
attr title  "packets sent to lower layer, count"
scalar University.accessPoint.wlan[0].mac 	sentDownPk:sum(packetBytes) 	2169497618
attr interpolationmode  none
attr source  packetSentToLower
attr title  "packets sent to lower layer, sum(packetBytes)"
scalar University.accessPoint.wlan[0].radio 	lossRate:min 	0
attr interpolationmode  backward-sample-hold
attr title  "packet loss rate, min"
scalar University.accessPoint.wlan[0].radio 	lossRate:max 	0.12
attr interpolationmode  backward-sample-hold
attr title  "packet loss rate, max"
scalar University.accessPoint.wlan[0].radio 	lossRate:timeavg 	0.00087845996958685
attr interpolationmode  backward-sample-hold
attr title  "packet loss rate, timeavg"
statistic University.accessPoint.wlan[0].radio 	channelNo:histogram
field count 0
field mean -nan
field stddev -nan
field sum 0
field sqrsum 0
field min -nan
field max -nan
attr interpolationmode  sample-hold
attr title  "channel no, histogram"
bin	-INF	0
bin	-0.5	0
bin	-0.46666666666667	0
bin	-0.43333333333333	0
bin	-0.4	0
bin	-0.36666666666667	0
bin	-0.33333333333333	0
bin	-0.3	0
bin	-0.26666666666667	0
bin	-0.23333333333333	0
bin	-0.2	0
bin	-0.16666666666667	0
bin	-0.13333333333333	0
bin	-0.1	0
bin	-0.066666666666667	0
bin	-0.033333333333333	0
bin	0	0
bin	0.033333333333333	0
bin	0.066666666666667	0
bin	0.1	0
bin	0.13333333333333	0
bin	0.16666666666667	0
bin	0.2	0
bin	0.23333333333333	0
bin	0.26666666666667	0
bin	0.3	0
bin	0.33333333333333	0
bin	0.36666666666667	0
bin	0.4	0
bin	0.43333333333333	0
bin	0.46666666666667	0
bin	0.5	0
scalar University.accessPoint.wlan[0].radio 	radioState:count 	13699597
attr interpolationmode  sample-hold
attr title  "radio state (enum), count"
scalar University.accessPoint.wlan[0].radio 	bitrate:min 	-nan
attr interpolationmode  sample-hold
attr title  "tx bitrate, min"
attr unit  bps
scalar University.accessPoint.wlan[0].radio 	bitrate:max 	-nan
attr interpolationmode  sample-hold
attr title  "tx bitrate, max"
attr unit  bps
scalar University.accessPoint.wlan[0].radio 	bitrate:timeavg 	-nan
attr interpolationmode  sample-hold
attr title  "tx bitrate, timeavg"
attr unit  bps
scalar University.accessPoint.eth[0].outputHook[0] 	duration 	5405.0001424942
scalar University.accessPoint.eth[0].outputHook[0] 	"total packets" 	1665327
scalar University.accessPoint.eth[0].outputHook[0] 	"total bits" 	6386955936
scalar University.accessPoint.eth[0].outputHook[0] 	"avg throughput (bit/s)" 	1181675.4426675
scalar University.accessPoint.eth[0].outputHook[0] 	"avg packets/s" 	308.10859502244
scalar University.accessPoint.eth[0].inputHook[0] 	duration 	5405.0001424942
scalar University.accessPoint.eth[0].inputHook[0] 	"total packets" 	1666487
scalar University.accessPoint.eth[0].inputHook[0] 	"total bits" 	15901753880
scalar University.accessPoint.eth[0].inputHook[0] 	"avg throughput (bit/s)" 	2942045.0436218
scalar University.accessPoint.eth[0].inputHook[0] 	"avg packets/s" 	308.32321111299
scalar University.accessPoint.eth[0].mac 	"simulated time" 	5405.0001424942
scalar University.accessPoint.eth[0].mac 	full-duplex 	1
scalar University.accessPoint.eth[0].mac 	"frames/sec sent" 	308.10859502244
scalar University.accessPoint.eth[0].mac 	"frames/sec rcvd" 	308.32321111299
scalar University.accessPoint.eth[0].mac 	"bits/sec sent" 	1181675.4426675
scalar University.accessPoint.eth[0].mac 	"bits/sec rcvd" 	2942045.0436218
scalar University.accessPoint.eth[0].mac 	"rx channel idle (%)" 	97.038222270868
scalar University.accessPoint.eth[0].mac 	"rx channel utilization (%)" 	2.9617777291318
scalar University.accessPoint.eth[0].mac 	rxPkFromHL:count 	1663816
attr interpolationmode  none
attr source  rxPkFromHL
attr title  "packet bytes from higher layer, count"
scalar University.accessPoint.eth[0].mac 	rxPkFromHL:sum(packetBytes) 	797242854
attr interpolationmode  none
attr source  rxPkFromHL
attr title  "packet bytes from higher layer, sum(packetBytes)"
scalar University.accessPoint.eth[0].mac 	rxPausePkUnits:count 	0
attr interpolationmode  none
attr title  "pause units received, count"
scalar University.accessPoint.eth[0].mac 	rxPausePkUnits:sum 	0
attr interpolationmode  none
attr title  "pause units received, sum"
scalar University.accessPoint.eth[0].mac 	txPausePkUnits:count 	0
attr interpolationmode  none
attr title  "pause units sent, count"
scalar University.accessPoint.eth[0].mac 	txPausePkUnits:sum 	0
attr interpolationmode  none
attr title  "pause units sent, sum"
scalar University.accessPoint.eth[0].mac 	txPk:count 	1663816
attr interpolationmode  none
attr source  txPk
attr title  "packets transmitted, count"
scalar University.accessPoint.eth[0].mac 	txPk:sum(packetBytes) 	797242854
attr interpolationmode  none
attr source  txPk
attr title  "packets transmitted, sum(packetBytes)"
scalar University.accessPoint.eth[0].mac 	droppedPkNotForUs:count 	0
attr interpolationmode  none
attr source  dropPkNotForUs
attr title  "packets dropped/not for us, count"
scalar University.accessPoint.eth[0].mac 	droppedPkNotForUs:sum(packetBytes) 	0
attr interpolationmode  none
attr source  dropPkNotForUs
attr title  "packets dropped/not for us, sum(packetBytes)"
scalar University.accessPoint.eth[0].mac 	passedUpPk:count 	1664983
attr interpolationmode  none
attr source  packetSentToUpper
attr title  "packets passed to higher layer, count"
scalar University.accessPoint.eth[0].mac 	passedUpPk:sum(packetBytes) 	1986323817
attr interpolationmode  none
attr source  packetSentToUpper
attr title  "packets passed to higher layer, sum(packetBytes)"
scalar University.accessPoint.eth[0].mac 	droppedPkBitError:count 	0
attr interpolationmode  none
attr source  dropPkBitError
attr title  "packets dropped/bit error, count"
scalar University.accessPoint.eth[0].mac 	droppedPkBitError:sum(packetBytes) 	0
attr interpolationmode  none
attr source  dropPkBitError
attr title  "packets dropped/bit error, sum(packetBytes)"
scalar University.accessPoint.eth[0].mac 	droppedPkIfaceDown:count 	0
attr interpolationmode  none
attr source  dropPkIfaceDown
attr title  "packets dropped/interface down, count"
scalar University.accessPoint.eth[0].mac 	droppedPkIfaceDown:sum(packetBytes) 	0
attr interpolationmode  none
attr source  dropPkIfaceDown
attr title  "packets dropped/interface down, sum(packetBytes)"
scalar University.accessPoint.eth[0].mac 	rxPkOk:count 	1664983
attr interpolationmode  none
attr source  rxPkOk
attr title  "packets received OK, count"
scalar University.accessPoint.eth[0].mac 	rxPkOk:sum(packetBytes) 	1986323817
attr interpolationmode  none
attr source  rxPkOk
attr title  "packets received OK, sum(packetBytes)"
