version 2
run _35off-1-20160818-17:40:57-29577
attr configname _35off
attr datetime 20160818-17:40:57
attr experiment _35off
attr inifile omnetpp.ini
attr iterationvars ""
attr iterationvars2 $repetition=1
attr measurement ""
attr network University
attr processid 29577
attr repetition 1
attr replication #1
attr resultdir results
attr runnumber 1
attr seedset 1

scalar University.remoteR.networkLayer.arp 	initiatedARPResolution:count 	1548
attr title  "ARP initiated resolutions, count"
scalar University.remoteR.networkLayer.arp 	sentReply:count 	38
attr title  "ARP replies sent, count"
scalar University.remoteR.networkLayer.arp 	sentReq:count 	1659
attr title  "ARP request sent, count"
scalar University.remoteR.networkLayer.arp 	failedARPResolution:count 	0
attr title  "ARP failed resolutions, count"
scalar University.remoteR.networkLayer.arp 	completedARPResolution:count 	1585
attr title  "ARP completed resolutions, count"
scalar University.remoteR.lo0.lo 	rcvdPkFromHL:count 	0
attr interpolationmode  none
attr source  packetReceivedFromUpper
attr title  "packets received from higher layer, count"
scalar University.remoteR.lo0.lo 	rcvdPkFromHL:sum(packetBytes) 	0
attr interpolationmode  none
attr source  packetReceivedFromUpper
attr title  "packets received from higher layer, sum(packetBytes)"
scalar University.remoteR.lo0.lo 	passedUpPk:count 	0
attr interpolationmode  none
attr source  packetSentToUpper
attr title  "packets passed to higher layer, count"
scalar University.remoteR.lo0.lo 	passedUpPk:sum(packetBytes) 	0
attr interpolationmode  none
attr source  packetSentToUpper
attr title  "packets passed to higher layer, sum(packetBytes)"
scalar University.remoteR.lo0.lo 	droppedPkBitError:count 	0
attr interpolationmode  none
attr source  dropPkBitError
attr title  "packets dropped/bit error, count"
scalar University.remoteR.lo0.lo 	droppedPkBitError:sum(packetBytes) 	0
attr interpolationmode  none
attr source  dropPkBitError
attr title  "packets dropped/bit error, sum(packetBytes)"
scalar University.remoteR.eth[0].mac 	"simulated time" 	5400.0021345018
scalar University.remoteR.eth[0].mac 	full-duplex 	1
scalar University.remoteR.eth[0].mac 	"frames/sec sent" 	729.52211904329
scalar University.remoteR.eth[0].mac 	"frames/sec rcvd" 	721.64119623252
scalar University.remoteR.eth[0].mac 	"bits/sec sent" 	8234690.7761181
scalar University.remoteR.eth[0].mac 	"bits/sec rcvd" 	1162382.1434988
scalar University.remoteR.eth[0].mac 	"rx channel idle (%)" 	98.791432819942
scalar University.remoteR.eth[0].mac 	"rx channel utilization (%)" 	1.2085671800575
scalar University.remoteR.eth[0].mac 	rxPkFromHL:count 	3939421
attr interpolationmode  none
attr source  rxPkFromHL
attr title  "packet bytes from higher layer, count"
scalar University.remoteR.eth[0].mac 	rxPkFromHL:sum(packetBytes) 	5558418471
attr interpolationmode  none
attr source  rxPkFromHL
attr title  "packet bytes from higher layer, sum(packetBytes)"
scalar University.remoteR.eth[0].mac 	rxPausePkUnits:count 	0
attr interpolationmode  none
attr title  "pause units received, count"
scalar University.remoteR.eth[0].mac 	rxPausePkUnits:sum 	0
attr interpolationmode  none
attr title  "pause units received, sum"
scalar University.remoteR.eth[0].mac 	txPausePkUnits:count 	0
attr interpolationmode  none
attr title  "pause units sent, count"
scalar University.remoteR.eth[0].mac 	txPausePkUnits:sum 	0
attr interpolationmode  none
attr title  "pause units sent, sum"
scalar University.remoteR.eth[0].mac 	txPk:count 	3939421
attr interpolationmode  none
attr source  txPk
attr title  "packets transmitted, count"
scalar University.remoteR.eth[0].mac 	txPk:sum(packetBytes) 	5558418471
attr interpolationmode  none
attr source  txPk
attr title  "packets transmitted, sum(packetBytes)"
scalar University.remoteR.eth[0].mac 	droppedPkNotForUs:count 	0
attr interpolationmode  none
attr source  dropPkNotForUs
attr title  "packets dropped/not for us, count"
scalar University.remoteR.eth[0].mac 	droppedPkNotForUs:sum(packetBytes) 	0
attr interpolationmode  none
attr source  dropPkNotForUs
attr title  "packets dropped/not for us, sum(packetBytes)"
scalar University.remoteR.eth[0].mac 	passedUpPk:count 	3896864
attr interpolationmode  none
attr source  packetSentToUpper
attr title  "packets passed to higher layer, count"
scalar University.remoteR.eth[0].mac 	passedUpPk:sum(packetBytes) 	784608257
attr interpolationmode  none
attr source  packetSentToUpper
attr title  "packets passed to higher layer, sum(packetBytes)"
scalar University.remoteR.eth[0].mac 	droppedPkBitError:count 	0
attr interpolationmode  none
attr source  dropPkBitError
attr title  "packets dropped/bit error, count"
scalar University.remoteR.eth[0].mac 	droppedPkBitError:sum(packetBytes) 	0
attr interpolationmode  none
attr source  dropPkBitError
attr title  "packets dropped/bit error, sum(packetBytes)"
scalar University.remoteR.eth[0].mac 	droppedPkIfaceDown:count 	0
attr interpolationmode  none
attr source  dropPkIfaceDown
attr title  "packets dropped/interface down, count"
scalar University.remoteR.eth[0].mac 	droppedPkIfaceDown:sum(packetBytes) 	0
attr interpolationmode  none
attr source  dropPkIfaceDown
attr title  "packets dropped/interface down, sum(packetBytes)"
scalar University.remoteR.eth[0].mac 	rxPkOk:count 	3896864
attr interpolationmode  none
attr source  rxPkOk
attr title  "packets received OK, count"
scalar University.remoteR.eth[0].mac 	rxPkOk:sum(packetBytes) 	784608257
attr interpolationmode  none
attr source  rxPkOk
attr title  "packets received OK, sum(packetBytes)"
scalar University.remoteR.eth[0].encap 	pauseSent:count 	0
attr title  "pause sent, count"
scalar University.remoteR.eth[0].encap 	pauseSent:sum 	0
attr title  "pause sent, sum"
scalar University.remoteR.eth[0].encap 	decapPk:count 	3896864
attr interpolationmode  none
attr source  decapPk
attr title  "packets decapsulated, count"
scalar University.remoteR.eth[0].encap 	decapPk:sum(packetBytes) 	700239140
attr interpolationmode  none
attr source  decapPk
attr title  "packets decapsulated, sum(packetBytes)"
scalar University.remoteR.eth[0].encap 	encapPk:count 	3939421
attr interpolationmode  none
attr source  encapPk
attr title  "packets encapsulated, count"
scalar University.remoteR.eth[0].encap 	encapPk:sum(packetBytes) 	5485893744
attr interpolationmode  none
attr source  encapPk
attr title  "packets encapsulated, sum(packetBytes)"
scalar University.remoteR.eth[1].mac 	"simulated time" 	5400.0021345018
scalar University.remoteR.eth[1].mac 	full-duplex 	1
scalar University.remoteR.eth[1].mac 	"frames/sec sent" 	0
scalar University.remoteR.eth[1].mac 	"frames/sec rcvd" 	0
scalar University.remoteR.eth[1].mac 	"bits/sec sent" 	0
scalar University.remoteR.eth[1].mac 	"bits/sec rcvd" 	0
scalar University.remoteR.eth[1].mac 	"rx channel idle (%)" 	100
scalar University.remoteR.eth[1].mac 	"rx channel utilization (%)" 	0
scalar University.remoteR.eth[1].mac 	rxPkFromHL:count 	0
attr interpolationmode  none
attr source  rxPkFromHL
attr title  "packet bytes from higher layer, count"
scalar University.remoteR.eth[1].mac 	rxPkFromHL:sum(packetBytes) 	0
attr interpolationmode  none
attr source  rxPkFromHL
attr title  "packet bytes from higher layer, sum(packetBytes)"
scalar University.remoteR.eth[1].mac 	rxPausePkUnits:count 	0
attr interpolationmode  none
attr title  "pause units received, count"
scalar University.remoteR.eth[1].mac 	rxPausePkUnits:sum 	0
attr interpolationmode  none
attr title  "pause units received, sum"
scalar University.remoteR.eth[1].mac 	txPausePkUnits:count 	0
attr interpolationmode  none
attr title  "pause units sent, count"
scalar University.remoteR.eth[1].mac 	txPausePkUnits:sum 	0
attr interpolationmode  none
attr title  "pause units sent, sum"
scalar University.remoteR.eth[1].mac 	txPk:count 	0
attr interpolationmode  none
attr source  txPk
attr title  "packets transmitted, count"
scalar University.remoteR.eth[1].mac 	txPk:sum(packetBytes) 	0
attr interpolationmode  none
attr source  txPk
attr title  "packets transmitted, sum(packetBytes)"
scalar University.remoteR.eth[1].mac 	droppedPkNotForUs:count 	0
attr interpolationmode  none
attr source  dropPkNotForUs
attr title  "packets dropped/not for us, count"
scalar University.remoteR.eth[1].mac 	droppedPkNotForUs:sum(packetBytes) 	0
attr interpolationmode  none
attr source  dropPkNotForUs
attr title  "packets dropped/not for us, sum(packetBytes)"
scalar University.remoteR.eth[1].mac 	passedUpPk:count 	0
attr interpolationmode  none
attr source  packetSentToUpper
attr title  "packets passed to higher layer, count"
scalar University.remoteR.eth[1].mac 	passedUpPk:sum(packetBytes) 	0
attr interpolationmode  none
attr source  packetSentToUpper
attr title  "packets passed to higher layer, sum(packetBytes)"
scalar University.remoteR.eth[1].mac 	droppedPkBitError:count 	0
attr interpolationmode  none
attr source  dropPkBitError
attr title  "packets dropped/bit error, count"
scalar University.remoteR.eth[1].mac 	droppedPkBitError:sum(packetBytes) 	0
attr interpolationmode  none
attr source  dropPkBitError
attr title  "packets dropped/bit error, sum(packetBytes)"
scalar University.remoteR.eth[1].mac 	droppedPkIfaceDown:count 	0
attr interpolationmode  none
attr source  dropPkIfaceDown
attr title  "packets dropped/interface down, count"
scalar University.remoteR.eth[1].mac 	droppedPkIfaceDown:sum(packetBytes) 	0
attr interpolationmode  none
attr source  dropPkIfaceDown
attr title  "packets dropped/interface down, sum(packetBytes)"
scalar University.remoteR.eth[1].mac 	rxPkOk:count 	0
attr interpolationmode  none
attr source  rxPkOk
attr title  "packets received OK, count"
scalar University.remoteR.eth[1].mac 	rxPkOk:sum(packetBytes) 	0
attr interpolationmode  none
attr source  rxPkOk
attr title  "packets received OK, sum(packetBytes)"
scalar University.remoteR.eth[1].encap 	pauseSent:count 	0
attr title  "pause sent, count"
scalar University.remoteR.eth[1].encap 	pauseSent:sum 	0
attr title  "pause sent, sum"
scalar University.remoteR.eth[1].encap 	decapPk:count 	0
attr interpolationmode  none
attr source  decapPk
attr title  "packets decapsulated, count"
scalar University.remoteR.eth[1].encap 	decapPk:sum(packetBytes) 	0
attr interpolationmode  none
attr source  decapPk
attr title  "packets decapsulated, sum(packetBytes)"
scalar University.remoteR.eth[1].encap 	encapPk:count 	0
attr interpolationmode  none
attr source  encapPk
attr title  "packets encapsulated, count"
scalar University.remoteR.eth[1].encap 	encapPk:sum(packetBytes) 	0
attr interpolationmode  none
attr source  encapPk
attr title  "packets encapsulated, sum(packetBytes)"
statistic University.remoteR.ppp[0].queue 	queueingTime:histogram
field count 3895279
field mean 4.8949136357488e-05
field stddev 0.00043419627483418
field sum 190.67054292146
field sqrsum 0.74369591653155
field min 0
field max 0.021450100657
attr interpolationmode  none
attr title  "queueing time, histogram"
bin	-INF	0
bin	-0.003996364224	0
bin	-0.0034635156608	0
bin	-0.0029306670976	0
bin	-0.0023978185344	0
bin	-0.0018649699712	0
bin	-0.001332121408	0
bin	-0.0007992728448	0
bin	-0.0002664242816	3740411
bin	0.0002664242816	105170
bin	0.0007992728448	22100
bin	0.001332121408	8647
bin	0.0018649699712	5157
bin	0.0023978185344	2687
bin	0.0029306670976	1994
bin	0.0034635156608	1319
bin	0.003996364224	1047
bin	0.0045292127872	866
bin	0.0050620613504	704
bin	0.0055949099136	581
bin	0.0061277584768	522
bin	0.00666060704	445
bin	0.0071934556032	414
bin	0.0077263041664	363
bin	0.0082591527296	313
bin	0.0087920012928	286
bin	0.009324849856	251
bin	0.0098576984192	225
bin	0.0103905469824	209
bin	0.0109233955456	184
bin	0.0114562441088	175
bin	0.011989092672	1209
scalar University.remoteR.ppp[0].queue 	dropPk:count 	0
attr interpolationmode  none
attr source  dropPkByQueue
attr title  "dropped packets, count"
scalar University.remoteR.ppp[0].queue 	dropPk:sum(packetBytes) 	0
attr interpolationmode  none
attr source  dropPkByQueue
attr title  "dropped packets, sum(packetBytes)"
scalar University.remoteR.ppp[0].queue 	queueLength:max 	22
attr interpolationmode  sample-hold
attr title  "queue length, max"
scalar University.remoteR.ppp[0].queue 	queueLength:timeavg 	0.035309345843258
attr interpolationmode  sample-hold
attr title  "queue length, timeavg"
scalar University.remoteR.ppp[0].queue 	rcvdPk:count 	3895279
attr interpolationmode  none
attr title  "received packets, count"
scalar University.remoteR.ppp[0].queue 	rcvdPk:sum(packetBytes) 	700194760
attr interpolationmode  none
attr title  "received packets, sum(packetBytes)"
scalar University.remoteR.ppp[0].ppp 	rcvdPkFromHL:count 	3895279
attr interpolationmode  none
attr source  packetReceivedFromUpper
attr title  "packets received from higher layer, count"
scalar University.remoteR.ppp[0].ppp 	rcvdPkFromHL:sum(packetBytes) 	700194760
attr interpolationmode  none
attr source  packetReceivedFromUpper
attr title  "packets received from higher layer, sum(packetBytes)"
scalar University.remoteR.ppp[0].ppp 	passedUpPk:count 	3937724
attr interpolationmode  none
attr source  packetSentToUpper
attr title  "packets passed to higher layer, count"
scalar University.remoteR.ppp[0].ppp 	passedUpPk:sum(packetBytes) 	5485846228
attr interpolationmode  none
attr source  packetSentToUpper
attr title  "packets passed to higher layer, sum(packetBytes)"
scalar University.remoteR.ppp[0].ppp 	txPk:count 	3895279
attr interpolationmode  none
attr source  packetSentToLower
attr title  "packets transmitted, count"
scalar University.remoteR.ppp[0].ppp 	txPk:sum(packetBytes) 	727461713
attr interpolationmode  none
attr source  packetSentToLower
attr title  "packets transmitted, sum(packetBytes)"
scalar University.remoteR.ppp[0].ppp 	droppedPkBitError:count 	0
attr interpolationmode  none
attr source  dropPkBitError
attr title  "packets dropped/bit error, count"
scalar University.remoteR.ppp[0].ppp 	droppedPkBitError:sum(packetBytes) 	0
attr interpolationmode  none
attr source  dropPkBitError
attr title  "packets dropped/bit error, sum(packetBytes)"
scalar University.remoteR.ppp[0].ppp 	droppedPkIfaceDown:count 	0
attr interpolationmode  none
attr source  dropPkIfaceDown
attr title  "packets dropped/interface down, count"
scalar University.remoteR.ppp[0].ppp 	droppedPkIfaceDown:sum(packetBytes) 	0
attr interpolationmode  none
attr source  dropPkIfaceDown
attr title  "packets dropped/interface down, sum(packetBytes)"
scalar University.remoteR.ppp[0].ppp 	rxPkOk:count 	3937724
attr interpolationmode  none
attr source  rxPkOk
attr title  "packets received OK, count"
scalar University.remoteR.ppp[0].ppp 	rxPkOk:sum(packetBytes) 	5513410296
attr interpolationmode  none
attr source  rxPkOk
attr title  "packets received OK, sum(packetBytes)"
scalar University.remoteR.ppp[0].ppp 	txState:timeavg 	0.089810052269209
attr interpolationmode  sample-hold
attr title  "tx state, timeavg"
scalar University.mainR.networkLayer.arp 	initiatedARPResolution:count 	0
attr title  "ARP initiated resolutions, count"
scalar University.mainR.networkLayer.arp 	sentReply:count 	0
attr title  "ARP replies sent, count"
scalar University.mainR.networkLayer.arp 	sentReq:count 	0
attr title  "ARP request sent, count"
scalar University.mainR.networkLayer.arp 	failedARPResolution:count 	0
attr title  "ARP failed resolutions, count"
scalar University.mainR.networkLayer.arp 	completedARPResolution:count 	0
attr title  "ARP completed resolutions, count"
scalar University.mainR.lo0.lo 	rcvdPkFromHL:count 	0
attr interpolationmode  none
attr source  packetReceivedFromUpper
attr title  "packets received from higher layer, count"
scalar University.mainR.lo0.lo 	rcvdPkFromHL:sum(packetBytes) 	0
attr interpolationmode  none
attr source  packetReceivedFromUpper
attr title  "packets received from higher layer, sum(packetBytes)"
scalar University.mainR.lo0.lo 	passedUpPk:count 	0
attr interpolationmode  none
attr source  packetSentToUpper
attr title  "packets passed to higher layer, count"
scalar University.mainR.lo0.lo 	passedUpPk:sum(packetBytes) 	0
attr interpolationmode  none
attr source  packetSentToUpper
attr title  "packets passed to higher layer, sum(packetBytes)"
scalar University.mainR.lo0.lo 	droppedPkBitError:count 	0
attr interpolationmode  none
attr source  dropPkBitError
attr title  "packets dropped/bit error, count"
scalar University.mainR.lo0.lo 	droppedPkBitError:sum(packetBytes) 	0
attr interpolationmode  none
attr source  dropPkBitError
attr title  "packets dropped/bit error, sum(packetBytes)"
statistic University.mainR.ppp[0].queue 	queueingTime:histogram
field count 3937729
field mean 0.023627271058892
field stddev 0.032618875010655
field sum 93037.790439458
field sqrsum 6387.936273291
field min 0
field max 0.10046666659
attr interpolationmode  none
attr title  "queueing time, histogram"
bin	-INF	0
bin	-0.003844690699	0
bin	-0.0033320652724667	0
bin	-0.0028194398459333	0
bin	-0.0023068144194	0
bin	-0.0017941889928667	0
bin	-0.0012815635663333	0
bin	-0.0007689381398	0
bin	-0.00025631271326667	870716
bin	0.00025631271326667	175581
bin	0.0007689381398	365492
bin	0.0012815635663333	141378
bin	0.0017941889928667	146890
bin	0.0023068144194	85921
bin	0.0028194398459333	75690
bin	0.0033320652724667	55095
bin	0.003844690699	47777
bin	0.0043573161255333	41502
bin	0.0048699415520667	35245
bin	0.0053825669786	34252
bin	0.0058951924051333	28627
bin	0.0064078178316667	30443
bin	0.0069204432582	24814
bin	0.0074330686847333	28265
bin	0.0079456941112667	22061
bin	0.0084583195378	25525
bin	0.0089709449643333	18875
bin	0.0094835703908667	22215
bin	0.0099961958174	17236
bin	0.010508821243933	20271
bin	0.011021446670467	16669
bin	0.011534072097	1607189
scalar University.mainR.ppp[0].queue 	dropPk:count 	168578
attr interpolationmode  none
attr source  dropPkByQueue
attr title  "dropped packets, count"
scalar University.mainR.ppp[0].queue 	dropPk:sum(packetBytes) 	251566158
attr interpolationmode  none
attr source  dropPkByQueue
attr title  "dropped packets, sum(packetBytes)"
scalar University.mainR.ppp[0].queue 	queueLength:max 	100
attr interpolationmode  sample-hold
attr title  "queue length, max"
scalar University.mainR.ppp[0].queue 	queueLength:timeavg 	17.229213641377
attr interpolationmode  sample-hold
attr title  "queue length, timeavg"
scalar University.mainR.ppp[0].queue 	rcvdPk:count 	4106307
attr interpolationmode  none
attr title  "received packets, count"
scalar University.mainR.ppp[0].queue 	rcvdPk:sum(packetBytes) 	5737419814
attr interpolationmode  none
attr title  "received packets, sum(packetBytes)"
scalar University.mainR.ppp[0].ppp 	rcvdPkFromHL:count 	3937729
attr interpolationmode  none
attr source  packetReceivedFromUpper
attr title  "packets received from higher layer, count"
scalar University.mainR.ppp[0].ppp 	rcvdPkFromHL:sum(packetBytes) 	5485853656
attr interpolationmode  none
attr source  packetReceivedFromUpper
attr title  "packets received from higher layer, sum(packetBytes)"
scalar University.mainR.ppp[0].ppp 	passedUpPk:count 	3895278
attr interpolationmode  none
attr source  packetSentToUpper
attr title  "packets passed to higher layer, count"
scalar University.mainR.ppp[0].ppp 	passedUpPk:sum(packetBytes) 	700193260
attr interpolationmode  none
attr source  packetSentToUpper
attr title  "packets passed to higher layer, sum(packetBytes)"
scalar University.mainR.ppp[0].ppp 	txPk:count 	3937729
attr interpolationmode  none
attr source  packetSentToLower
attr title  "packets transmitted, count"
scalar University.mainR.ppp[0].ppp 	txPk:sum(packetBytes) 	5513417759
attr interpolationmode  none
attr source  packetSentToLower
attr title  "packets transmitted, sum(packetBytes)"
scalar University.mainR.ppp[0].ppp 	droppedPkBitError:count 	0
attr interpolationmode  none
attr source  dropPkBitError
attr title  "packets dropped/bit error, count"
scalar University.mainR.ppp[0].ppp 	droppedPkBitError:sum(packetBytes) 	0
attr interpolationmode  none
attr source  dropPkBitError
attr title  "packets dropped/bit error, sum(packetBytes)"
scalar University.mainR.ppp[0].ppp 	droppedPkIfaceDown:count 	0
attr interpolationmode  none
attr source  dropPkIfaceDown
attr title  "packets dropped/interface down, count"
scalar University.mainR.ppp[0].ppp 	droppedPkIfaceDown:sum(packetBytes) 	0
attr interpolationmode  none
attr source  dropPkIfaceDown
attr title  "packets dropped/interface down, sum(packetBytes)"
scalar University.mainR.ppp[0].ppp 	rxPkOk:count 	3895278
attr interpolationmode  none
attr source  rxPkOk
attr title  "packets received OK, count"
scalar University.mainR.ppp[0].ppp 	rxPkOk:sum(packetBytes) 	727460206
attr interpolationmode  none
attr source  rxPkOk
attr title  "packets received OK, sum(packetBytes)"
scalar University.mainR.ppp[0].ppp 	txState:timeavg 	0.68066858965141
attr interpolationmode  sample-hold
attr title  "tx state, timeavg"
statistic University.mainR.ppp[1].queue 	queueingTime:histogram
field count 134938
field mean 0
field stddev 0
field sum 0
field sqrsum 0
field min 0
field max 0
attr interpolationmode  none
attr title  "queueing time, histogram"
bin	-INF	0
bin	-0.5	0
bin	-0.46666666666667	0
bin	-0.43333333333333	0
bin	-0.4	0
bin	-0.36666666666667	0
bin	-0.33333333333333	0
bin	-0.3	0
bin	-0.26666666666667	0
bin	-0.23333333333333	0
bin	-0.2	0
bin	-0.16666666666667	0
bin	-0.13333333333333	0
bin	-0.1	0
bin	-0.066666666666667	0
bin	-0.033333333333333	0
bin	0	134938
bin	0.033333333333333	0
bin	0.066666666666667	0
bin	0.1	0
bin	0.13333333333333	0
bin	0.16666666666667	0
bin	0.2	0
bin	0.23333333333333	0
bin	0.26666666666667	0
bin	0.3	0
bin	0.33333333333333	0
bin	0.36666666666667	0
bin	0.4	0
bin	0.43333333333333	0
bin	0.46666666666667	0
bin	0.5	0
scalar University.mainR.ppp[1].queue 	dropPk:count 	0
attr interpolationmode  none
attr source  dropPkByQueue
attr title  "dropped packets, count"
scalar University.mainR.ppp[1].queue 	dropPk:sum(packetBytes) 	0
attr interpolationmode  none
attr source  dropPkByQueue
attr title  "dropped packets, sum(packetBytes)"
scalar University.mainR.ppp[1].queue 	queueLength:max 	0
attr interpolationmode  sample-hold
attr title  "queue length, max"
scalar University.mainR.ppp[1].queue 	queueLength:timeavg 	0
attr interpolationmode  sample-hold
attr title  "queue length, timeavg"
scalar University.mainR.ppp[1].queue 	rcvdPk:count 	134938
attr interpolationmode  none
attr title  "received packets, count"
scalar University.mainR.ppp[1].queue 	rcvdPk:sum(packetBytes) 	192691464
attr interpolationmode  none
attr title  "received packets, sum(packetBytes)"
scalar University.mainR.ppp[1].ppp 	rcvdPkFromHL:count 	134938
attr interpolationmode  none
attr source  packetReceivedFromUpper
attr title  "packets received from higher layer, count"
scalar University.mainR.ppp[1].ppp 	rcvdPkFromHL:sum(packetBytes) 	192691464
attr interpolationmode  none
attr source  packetReceivedFromUpper
attr title  "packets received from higher layer, sum(packetBytes)"
scalar University.mainR.ppp[1].ppp 	passedUpPk:count 	135000
attr interpolationmode  none
attr source  packetSentToUpper
attr title  "packets passed to higher layer, count"
scalar University.mainR.ppp[1].ppp 	passedUpPk:sum(packetBytes) 	192780000
attr interpolationmode  none
attr source  packetSentToUpper
attr title  "packets passed to higher layer, sum(packetBytes)"
scalar University.mainR.ppp[1].ppp 	txPk:count 	134938
attr interpolationmode  none
attr source  packetSentToLower
attr title  "packets transmitted, count"
scalar University.mainR.ppp[1].ppp 	txPk:sum(packetBytes) 	193636030
attr interpolationmode  none
attr source  packetSentToLower
attr title  "packets transmitted, sum(packetBytes)"
scalar University.mainR.ppp[1].ppp 	droppedPkBitError:count 	0
attr interpolationmode  none
attr source  dropPkBitError
attr title  "packets dropped/bit error, count"
scalar University.mainR.ppp[1].ppp 	droppedPkBitError:sum(packetBytes) 	0
attr interpolationmode  none
attr source  dropPkBitError
attr title  "packets dropped/bit error, sum(packetBytes)"
scalar University.mainR.ppp[1].ppp 	droppedPkIfaceDown:count 	0
attr interpolationmode  none
attr source  dropPkIfaceDown
attr title  "packets dropped/interface down, count"
scalar University.mainR.ppp[1].ppp 	droppedPkIfaceDown:sum(packetBytes) 	0
attr interpolationmode  none
attr source  dropPkIfaceDown
attr title  "packets dropped/interface down, sum(packetBytes)"
scalar University.mainR.ppp[1].ppp 	rxPkOk:count 	135000
attr interpolationmode  none
attr source  rxPkOk
attr title  "packets received OK, count"
scalar University.mainR.ppp[1].ppp 	rxPkOk:sum(packetBytes) 	193725000
attr interpolationmode  none
attr source  rxPkOk
attr title  "packets received OK, sum(packetBytes)"
scalar University.mainR.ppp[1].ppp 	txState:timeavg 	0
attr interpolationmode  sample-hold
attr title  "tx state, timeavg"
statistic University.mainR.ppp[2].queue 	queueingTime:histogram
field count 3760340
field mean 1.7310222877438e-06
field stddev 1.2221260531e-05
field sum 6.5092323494946
field sqrsum 0.00057290888475921
field min 0
field max 8.9226667e-05
attr interpolationmode  none
attr title  "queueing time, histogram"
bin	-INF	0
bin	-0.5	0
bin	-0.46666666666667	0
bin	-0.43333333333333	0
bin	-0.4	0
bin	-0.36666666666667	0
bin	-0.33333333333333	0
bin	-0.3	0
bin	-0.26666666666667	0
bin	-0.23333333333333	0
bin	-0.2	0
bin	-0.16666666666667	0
bin	-0.13333333333333	0
bin	-0.1	0
bin	-0.066666666666667	0
bin	-0.033333333333333	0
bin	0	3760340
bin	0.033333333333333	0
bin	0.066666666666667	0
bin	0.1	0
bin	0.13333333333333	0
bin	0.16666666666667	0
bin	0.2	0
bin	0.23333333333333	0
bin	0.26666666666667	0
bin	0.3	0
bin	0.33333333333333	0
bin	0.36666666666667	0
bin	0.4	0
bin	0.43333333333333	0
bin	0.46666666666667	0
bin	0.5	0
scalar University.mainR.ppp[2].queue 	dropPk:count 	0
attr interpolationmode  none
attr source  dropPkByQueue
attr title  "dropped packets, count"
scalar University.mainR.ppp[2].queue 	dropPk:sum(packetBytes) 	0
attr interpolationmode  none
attr source  dropPkByQueue
attr title  "dropped packets, sum(packetBytes)"
scalar University.mainR.ppp[2].queue 	queueLength:max 	3
attr interpolationmode  sample-hold
attr title  "queue length, max"
scalar University.mainR.ppp[2].queue 	queueLength:timeavg 	0.0012054129215815
attr interpolationmode  sample-hold
attr title  "queue length, timeavg"
scalar University.mainR.ppp[2].queue 	rcvdPk:count 	3760340
attr interpolationmode  none
attr title  "received packets, count"
scalar University.mainR.ppp[2].queue 	rcvdPk:sum(packetBytes) 	507501796
attr interpolationmode  none
attr title  "received packets, sum(packetBytes)"
scalar University.mainR.ppp[2].ppp 	rcvdPkFromHL:count 	3760340
attr interpolationmode  none
attr source  packetReceivedFromUpper
attr title  "packets received from higher layer, count"
scalar University.mainR.ppp[2].ppp 	rcvdPkFromHL:sum(packetBytes) 	507501796
attr interpolationmode  none
attr source  packetReceivedFromUpper
attr title  "packets received from higher layer, sum(packetBytes)"
scalar University.mainR.ppp[2].ppp 	passedUpPk:count 	3971307
attr interpolationmode  none
attr source  packetSentToUpper
attr title  "packets passed to higher layer, count"
scalar University.mainR.ppp[2].ppp 	passedUpPk:sum(packetBytes) 	5544639814
attr interpolationmode  none
attr source  packetSentToUpper
attr title  "packets passed to higher layer, sum(packetBytes)"
scalar University.mainR.ppp[2].ppp 	txPk:count 	3760340
attr interpolationmode  none
attr source  packetSentToLower
attr title  "packets transmitted, count"
scalar University.mainR.ppp[2].ppp 	txPk:sum(packetBytes) 	533824176
attr interpolationmode  none
attr source  packetSentToLower
attr title  "packets transmitted, sum(packetBytes)"
scalar University.mainR.ppp[2].ppp 	droppedPkBitError:count 	0
attr interpolationmode  none
attr source  dropPkBitError
attr title  "packets dropped/bit error, count"
scalar University.mainR.ppp[2].ppp 	droppedPkBitError:sum(packetBytes) 	0
attr interpolationmode  none
attr source  dropPkBitError
attr title  "packets dropped/bit error, sum(packetBytes)"
scalar University.mainR.ppp[2].ppp 	droppedPkIfaceDown:count 	0
attr interpolationmode  none
attr source  dropPkIfaceDown
attr title  "packets dropped/interface down, count"
scalar University.mainR.ppp[2].ppp 	droppedPkIfaceDown:sum(packetBytes) 	0
attr interpolationmode  none
attr source  dropPkIfaceDown
attr title  "packets dropped/interface down, sum(packetBytes)"
scalar University.mainR.ppp[2].ppp 	rxPkOk:count 	3971307
attr interpolationmode  none
attr source  rxPkOk
attr title  "packets received OK, count"
scalar University.mainR.ppp[2].ppp 	rxPkOk:sum(packetBytes) 	5572438963
attr interpolationmode  none
attr source  rxPkOk
attr title  "packets received OK, sum(packetBytes)"
scalar University.mainR.ppp[2].ppp 	txState:timeavg 	0.0079085031833716
attr interpolationmode  sample-hold
attr title  "tx state, timeavg"
statistic University.mainR.ppp[3].queue 	queueingTime:histogram
field count 0
field mean -nan
field stddev -nan
field sum 0
field sqrsum 0
field min -nan
field max -nan
attr interpolationmode  none
attr title  "queueing time, histogram"
bin	-INF	0
bin	-0.5	0
bin	-0.46666666666667	0
bin	-0.43333333333333	0
bin	-0.4	0
bin	-0.36666666666667	0
bin	-0.33333333333333	0
bin	-0.3	0
bin	-0.26666666666667	0
bin	-0.23333333333333	0
bin	-0.2	0
bin	-0.16666666666667	0
bin	-0.13333333333333	0
bin	-0.1	0
bin	-0.066666666666667	0
bin	-0.033333333333333	0
bin	0	0
bin	0.033333333333333	0
bin	0.066666666666667	0
bin	0.1	0
bin	0.13333333333333	0
bin	0.16666666666667	0
bin	0.2	0
bin	0.23333333333333	0
bin	0.26666666666667	0
bin	0.3	0
bin	0.33333333333333	0
bin	0.36666666666667	0
bin	0.4	0
bin	0.43333333333333	0
bin	0.46666666666667	0
bin	0.5	0
scalar University.mainR.ppp[3].queue 	dropPk:count 	0
attr interpolationmode  none
attr source  dropPkByQueue
attr title  "dropped packets, count"
scalar University.mainR.ppp[3].queue 	dropPk:sum(packetBytes) 	0
attr interpolationmode  none
attr source  dropPkByQueue
attr title  "dropped packets, sum(packetBytes)"
scalar University.mainR.ppp[3].queue 	queueLength:max 	0
attr interpolationmode  sample-hold
attr title  "queue length, max"
scalar University.mainR.ppp[3].queue 	queueLength:timeavg 	0
attr interpolationmode  sample-hold
attr title  "queue length, timeavg"
scalar University.mainR.ppp[3].queue 	rcvdPk:count 	0
attr interpolationmode  none
attr title  "received packets, count"
scalar University.mainR.ppp[3].queue 	rcvdPk:sum(packetBytes) 	0
attr interpolationmode  none
attr title  "received packets, sum(packetBytes)"
scalar University.mainR.ppp[3].ppp 	rcvdPkFromHL:count 	0
attr interpolationmode  none
attr source  packetReceivedFromUpper
attr title  "packets received from higher layer, count"
scalar University.mainR.ppp[3].ppp 	rcvdPkFromHL:sum(packetBytes) 	0
attr interpolationmode  none
attr source  packetReceivedFromUpper
attr title  "packets received from higher layer, sum(packetBytes)"
scalar University.mainR.ppp[3].ppp 	passedUpPk:count 	0
attr interpolationmode  none
attr source  packetSentToUpper
attr title  "packets passed to higher layer, count"
scalar University.mainR.ppp[3].ppp 	passedUpPk:sum(packetBytes) 	0
attr interpolationmode  none
attr source  packetSentToUpper
attr title  "packets passed to higher layer, sum(packetBytes)"
scalar University.mainR.ppp[3].ppp 	txPk:count 	0
attr interpolationmode  none
attr source  packetSentToLower
attr title  "packets transmitted, count"
scalar University.mainR.ppp[3].ppp 	txPk:sum(packetBytes) 	0
attr interpolationmode  none
attr source  packetSentToLower
attr title  "packets transmitted, sum(packetBytes)"
scalar University.mainR.ppp[3].ppp 	droppedPkBitError:count 	0
attr interpolationmode  none
attr source  dropPkBitError
attr title  "packets dropped/bit error, count"
scalar University.mainR.ppp[3].ppp 	droppedPkBitError:sum(packetBytes) 	0
attr interpolationmode  none
attr source  dropPkBitError
attr title  "packets dropped/bit error, sum(packetBytes)"
scalar University.mainR.ppp[3].ppp 	droppedPkIfaceDown:count 	0
attr interpolationmode  none
attr source  dropPkIfaceDown
attr title  "packets dropped/interface down, count"
scalar University.mainR.ppp[3].ppp 	droppedPkIfaceDown:sum(packetBytes) 	0
attr interpolationmode  none
attr source  dropPkIfaceDown
attr title  "packets dropped/interface down, sum(packetBytes)"
scalar University.mainR.ppp[3].ppp 	rxPkOk:count 	0
attr interpolationmode  none
attr source  rxPkOk
attr title  "packets received OK, count"
scalar University.mainR.ppp[3].ppp 	rxPkOk:sum(packetBytes) 	0
attr interpolationmode  none
attr source  rxPkOk
attr title  "packets received OK, sum(packetBytes)"
scalar University.mainR.ppp[3].ppp 	txState:timeavg 	0
attr interpolationmode  sample-hold
attr title  "tx state, timeavg"
scalar University.ccTVMonitoringHost.networkLayer.arp 	initiatedARPResolution:count 	0
attr title  "ARP initiated resolutions, count"
scalar University.ccTVMonitoringHost.networkLayer.arp 	sentReply:count 	0
attr title  "ARP replies sent, count"
scalar University.ccTVMonitoringHost.networkLayer.arp 	sentReq:count 	0
attr title  "ARP request sent, count"
scalar University.ccTVMonitoringHost.networkLayer.arp 	failedARPResolution:count 	0
attr title  "ARP failed resolutions, count"
scalar University.ccTVMonitoringHost.networkLayer.arp 	completedARPResolution:count 	0
attr title  "ARP completed resolutions, count"
scalar University.ccTVMonitoringHost.lo0.lo 	rcvdPkFromHL:count 	0
attr interpolationmode  none
attr source  packetReceivedFromUpper
attr title  "packets received from higher layer, count"
scalar University.ccTVMonitoringHost.lo0.lo 	rcvdPkFromHL:sum(packetBytes) 	0
attr interpolationmode  none
attr source  packetReceivedFromUpper
attr title  "packets received from higher layer, sum(packetBytes)"
scalar University.ccTVMonitoringHost.lo0.lo 	passedUpPk:count 	0
attr interpolationmode  none
attr source  packetSentToUpper
attr title  "packets passed to higher layer, count"
scalar University.ccTVMonitoringHost.lo0.lo 	passedUpPk:sum(packetBytes) 	0
attr interpolationmode  none
attr source  packetSentToUpper
attr title  "packets passed to higher layer, sum(packetBytes)"
scalar University.ccTVMonitoringHost.lo0.lo 	droppedPkBitError:count 	0
attr interpolationmode  none
attr source  dropPkBitError
attr title  "packets dropped/bit error, count"
scalar University.ccTVMonitoringHost.lo0.lo 	droppedPkBitError:sum(packetBytes) 	0
attr interpolationmode  none
attr source  dropPkBitError
attr title  "packets dropped/bit error, sum(packetBytes)"
statistic University.ccTVMonitoringHost.ppp[0].queue 	queueingTime:histogram
field count 0
field mean -nan
field stddev -nan
field sum 0
field sqrsum 0
field min -nan
field max -nan
attr interpolationmode  none
attr title  "queueing time, histogram"
bin	-INF	0
bin	-0.5	0
bin	-0.46666666666667	0
bin	-0.43333333333333	0
bin	-0.4	0
bin	-0.36666666666667	0
bin	-0.33333333333333	0
bin	-0.3	0
bin	-0.26666666666667	0
bin	-0.23333333333333	0
bin	-0.2	0
bin	-0.16666666666667	0
bin	-0.13333333333333	0
bin	-0.1	0
bin	-0.066666666666667	0
bin	-0.033333333333333	0
bin	0	0
bin	0.033333333333333	0
bin	0.066666666666667	0
bin	0.1	0
bin	0.13333333333333	0
bin	0.16666666666667	0
bin	0.2	0
bin	0.23333333333333	0
bin	0.26666666666667	0
bin	0.3	0
bin	0.33333333333333	0
bin	0.36666666666667	0
bin	0.4	0
bin	0.43333333333333	0
bin	0.46666666666667	0
bin	0.5	0
scalar University.ccTVMonitoringHost.ppp[0].queue 	dropPk:count 	0
attr interpolationmode  none
attr source  dropPkByQueue
attr title  "dropped packets, count"
scalar University.ccTVMonitoringHost.ppp[0].queue 	dropPk:sum(packetBytes) 	0
attr interpolationmode  none
attr source  dropPkByQueue
attr title  "dropped packets, sum(packetBytes)"
scalar University.ccTVMonitoringHost.ppp[0].queue 	queueLength:max 	0
attr interpolationmode  sample-hold
attr title  "queue length, max"
scalar University.ccTVMonitoringHost.ppp[0].queue 	queueLength:timeavg 	0
attr interpolationmode  sample-hold
attr title  "queue length, timeavg"
scalar University.ccTVMonitoringHost.ppp[0].queue 	rcvdPk:count 	0
attr interpolationmode  none
attr title  "received packets, count"
scalar University.ccTVMonitoringHost.ppp[0].queue 	rcvdPk:sum(packetBytes) 	0
attr interpolationmode  none
attr title  "received packets, sum(packetBytes)"
scalar University.ccTVMonitoringHost.ppp[0].ppp 	rcvdPkFromHL:count 	0
attr interpolationmode  none
attr source  packetReceivedFromUpper
attr title  "packets received from higher layer, count"
scalar University.ccTVMonitoringHost.ppp[0].ppp 	rcvdPkFromHL:sum(packetBytes) 	0
attr interpolationmode  none
attr source  packetReceivedFromUpper
attr title  "packets received from higher layer, sum(packetBytes)"
scalar University.ccTVMonitoringHost.ppp[0].ppp 	passedUpPk:count 	0
attr interpolationmode  none
attr source  packetSentToUpper
attr title  "packets passed to higher layer, count"
scalar University.ccTVMonitoringHost.ppp[0].ppp 	passedUpPk:sum(packetBytes) 	0
attr interpolationmode  none
attr source  packetSentToUpper
attr title  "packets passed to higher layer, sum(packetBytes)"
scalar University.ccTVMonitoringHost.ppp[0].ppp 	txPk:count 	0
attr interpolationmode  none
attr source  packetSentToLower
attr title  "packets transmitted, count"
scalar University.ccTVMonitoringHost.ppp[0].ppp 	txPk:sum(packetBytes) 	0
attr interpolationmode  none
attr source  packetSentToLower
attr title  "packets transmitted, sum(packetBytes)"
scalar University.ccTVMonitoringHost.ppp[0].ppp 	droppedPkBitError:count 	0
attr interpolationmode  none
attr source  dropPkBitError
attr title  "packets dropped/bit error, count"
scalar University.ccTVMonitoringHost.ppp[0].ppp 	droppedPkBitError:sum(packetBytes) 	0
attr interpolationmode  none
attr source  dropPkBitError
attr title  "packets dropped/bit error, sum(packetBytes)"
scalar University.ccTVMonitoringHost.ppp[0].ppp 	droppedPkIfaceDown:count 	0
attr interpolationmode  none
attr source  dropPkIfaceDown
attr title  "packets dropped/interface down, count"
scalar University.ccTVMonitoringHost.ppp[0].ppp 	droppedPkIfaceDown:sum(packetBytes) 	0
attr interpolationmode  none
attr source  dropPkIfaceDown
attr title  "packets dropped/interface down, sum(packetBytes)"
scalar University.ccTVMonitoringHost.ppp[0].ppp 	rxPkOk:count 	0
attr interpolationmode  none
attr source  rxPkOk
attr title  "packets received OK, count"
scalar University.ccTVMonitoringHost.ppp[0].ppp 	rxPkOk:sum(packetBytes) 	0
attr interpolationmode  none
attr source  rxPkOk
attr title  "packets received OK, sum(packetBytes)"
scalar University.ccTVMonitoringHost.ppp[0].ppp 	txState:timeavg 	0
attr interpolationmode  sample-hold
attr title  "tx state, timeavg"
scalar University.profLaptop.networkLayer.arp 	initiatedARPResolution:count 	0
attr title  "ARP initiated resolutions, count"
scalar University.profLaptop.networkLayer.arp 	sentReply:count 	0
attr title  "ARP replies sent, count"
scalar University.profLaptop.networkLayer.arp 	sentReq:count 	0
attr title  "ARP request sent, count"
scalar University.profLaptop.networkLayer.arp 	failedARPResolution:count 	0
attr title  "ARP failed resolutions, count"
scalar University.profLaptop.networkLayer.arp 	completedARPResolution:count 	0
attr title  "ARP completed resolutions, count"
scalar University.profLaptop.lo0.lo 	rcvdPkFromHL:count 	0
attr interpolationmode  none
attr source  packetReceivedFromUpper
attr title  "packets received from higher layer, count"
scalar University.profLaptop.lo0.lo 	rcvdPkFromHL:sum(packetBytes) 	0
attr interpolationmode  none
attr source  packetReceivedFromUpper
attr title  "packets received from higher layer, sum(packetBytes)"
scalar University.profLaptop.lo0.lo 	passedUpPk:count 	0
attr interpolationmode  none
attr source  packetSentToUpper
attr title  "packets passed to higher layer, count"
scalar University.profLaptop.lo0.lo 	passedUpPk:sum(packetBytes) 	0
attr interpolationmode  none
attr source  packetSentToUpper
attr title  "packets passed to higher layer, sum(packetBytes)"
scalar University.profLaptop.lo0.lo 	droppedPkBitError:count 	0
attr interpolationmode  none
attr source  dropPkBitError
attr title  "packets dropped/bit error, count"
scalar University.profLaptop.lo0.lo 	droppedPkBitError:sum(packetBytes) 	0
attr interpolationmode  none
attr source  dropPkBitError
attr title  "packets dropped/bit error, sum(packetBytes)"
statistic University.profLaptop.ppp[0].queue 	queueingTime:histogram
field count 135000
field mean 0
field stddev 0
field sum 0
field sqrsum 0
field min 0
field max 0
attr interpolationmode  none
attr title  "queueing time, histogram"
bin	-INF	0
bin	-0.5	0
bin	-0.46666666666667	0
bin	-0.43333333333333	0
bin	-0.4	0
bin	-0.36666666666667	0
bin	-0.33333333333333	0
bin	-0.3	0
bin	-0.26666666666667	0
bin	-0.23333333333333	0
bin	-0.2	0
bin	-0.16666666666667	0
bin	-0.13333333333333	0
bin	-0.1	0
bin	-0.066666666666667	0
bin	-0.033333333333333	0
bin	0	135000
bin	0.033333333333333	0
bin	0.066666666666667	0
bin	0.1	0
bin	0.13333333333333	0
bin	0.16666666666667	0
bin	0.2	0
bin	0.23333333333333	0
bin	0.26666666666667	0
bin	0.3	0
bin	0.33333333333333	0
bin	0.36666666666667	0
bin	0.4	0
bin	0.43333333333333	0
bin	0.46666666666667	0
bin	0.5	0
scalar University.profLaptop.ppp[0].queue 	dropPk:count 	0
attr interpolationmode  none
attr source  dropPkByQueue
attr title  "dropped packets, count"
scalar University.profLaptop.ppp[0].queue 	dropPk:sum(packetBytes) 	0
attr interpolationmode  none
attr source  dropPkByQueue
attr title  "dropped packets, sum(packetBytes)"
scalar University.profLaptop.ppp[0].queue 	queueLength:max 	0
attr interpolationmode  sample-hold
attr title  "queue length, max"
scalar University.profLaptop.ppp[0].queue 	queueLength:timeavg 	0
attr interpolationmode  sample-hold
attr title  "queue length, timeavg"
scalar University.profLaptop.ppp[0].queue 	rcvdPk:count 	135000
attr interpolationmode  none
attr title  "received packets, count"
scalar University.profLaptop.ppp[0].queue 	rcvdPk:sum(packetBytes) 	192780000
attr interpolationmode  none
attr title  "received packets, sum(packetBytes)"
scalar University.profLaptop.ppp[0].ppp 	rcvdPkFromHL:count 	135000
attr interpolationmode  none
attr source  packetReceivedFromUpper
attr title  "packets received from higher layer, count"
scalar University.profLaptop.ppp[0].ppp 	rcvdPkFromHL:sum(packetBytes) 	192780000
attr interpolationmode  none
attr source  packetReceivedFromUpper
attr title  "packets received from higher layer, sum(packetBytes)"
scalar University.profLaptop.ppp[0].ppp 	passedUpPk:count 	134938
attr interpolationmode  none
attr source  packetSentToUpper
attr title  "packets passed to higher layer, count"
scalar University.profLaptop.ppp[0].ppp 	passedUpPk:sum(packetBytes) 	192691464
attr interpolationmode  none
attr source  packetSentToUpper
attr title  "packets passed to higher layer, sum(packetBytes)"
scalar University.profLaptop.ppp[0].ppp 	txPk:count 	135000
attr interpolationmode  none
attr source  packetSentToLower
attr title  "packets transmitted, count"
scalar University.profLaptop.ppp[0].ppp 	txPk:sum(packetBytes) 	193725000
attr interpolationmode  none
attr source  packetSentToLower
attr title  "packets transmitted, sum(packetBytes)"
scalar University.profLaptop.ppp[0].ppp 	droppedPkBitError:count 	0
attr interpolationmode  none
attr source  dropPkBitError
attr title  "packets dropped/bit error, count"
scalar University.profLaptop.ppp[0].ppp 	droppedPkBitError:sum(packetBytes) 	0
attr interpolationmode  none
attr source  dropPkBitError
attr title  "packets dropped/bit error, sum(packetBytes)"
scalar University.profLaptop.ppp[0].ppp 	droppedPkIfaceDown:count 	0
attr interpolationmode  none
attr source  dropPkIfaceDown
attr title  "packets dropped/interface down, count"
scalar University.profLaptop.ppp[0].ppp 	droppedPkIfaceDown:sum(packetBytes) 	0
attr interpolationmode  none
attr source  dropPkIfaceDown
attr title  "packets dropped/interface down, sum(packetBytes)"
scalar University.profLaptop.ppp[0].ppp 	rxPkOk:count 	134938
attr interpolationmode  none
attr source  rxPkOk
attr title  "packets received OK, count"
scalar University.profLaptop.ppp[0].ppp 	rxPkOk:sum(packetBytes) 	193636030
attr interpolationmode  none
attr source  rxPkOk
attr title  "packets received OK, sum(packetBytes)"
scalar University.profLaptop.ppp[0].ppp 	txState:timeavg 	0
attr interpolationmode  sample-hold
attr title  "tx state, timeavg"
scalar University.profLaptop.udpApp[0] 	"packets sent" 	135000
scalar University.profLaptop.udpApp[0] 	"packets received" 	134938
scalar University.profLaptop.udpApp[0] 	sentPk:count 	135000
attr interpolationmode  none
attr source  sentPk
attr title  "packets sent, count"
scalar University.profLaptop.udpApp[0] 	sentPk:sum(packetBytes) 	189000000
attr interpolationmode  none
attr source  sentPk
attr title  "packets sent, sum(packetBytes)"
scalar University.profLaptop.udpApp[0] 	rcvdPk:count 	134938
attr interpolationmode  none
attr source  rcvdPk
attr title  "packets received, count"
scalar University.profLaptop.udpApp[0] 	rcvdPk:sum(packetBytes) 	188913200
attr interpolationmode  none
attr source  rcvdPk
attr title  "packets received, sum(packetBytes)"
statistic University.profLaptop.udpApp[0] 	rcvdPkLifetime:stats
field count 134938
field mean 0.017827860644619
field stddev 0.0090189813784894
field sum 2405.6558596636
field sqrsum 53.863746266659
field min 0.016345602323
field max 1.033876885173
attr interpolationmode  none
attr source  messageAge(rcvdPk)
attr title  "received packet lifetime, stats"
attr unit  s
scalar University.profLaptop.udp 	droppedPkBadChecksum:count 	0
attr interpolationmode  none
attr title  "packets dropped (checksum error), count"
scalar University.profLaptop.udp 	droppedPkWrongPort:count 	0
attr interpolationmode  none
attr title  "packets dropped (wrong port), count"
scalar University.profLaptop.udp 	passedUpPk:count 	134938
attr interpolationmode  none
attr title  "packets passed up, count"
scalar University.profLaptop.udp 	sentPk:count 	135000
attr interpolationmode  none
attr source  sentPk
attr title  "packets sent, count"
scalar University.profLaptop.udp 	sentPk:sum(packetBytes) 	190080000
attr interpolationmode  none
attr source  sentPk
attr title  "packets sent, sum(packetBytes)"
scalar University.profLaptop.udp 	rcvdPk:count 	134938
attr interpolationmode  none
attr source  rcvdPk
attr title  "packets received, count"
scalar University.profLaptop.udp 	rcvdPk:sum(packetBytes) 	189992704
attr interpolationmode  none
attr source  rcvdPk
attr title  "packets received, sum(packetBytes)"
scalar University.Server.networkLayer.arp 	initiatedARPResolution:count 	0
attr title  "ARP initiated resolutions, count"
scalar University.Server.networkLayer.arp 	sentReply:count 	0
attr title  "ARP replies sent, count"
scalar University.Server.networkLayer.arp 	sentReq:count 	0
attr title  "ARP request sent, count"
scalar University.Server.networkLayer.arp 	failedARPResolution:count 	0
attr title  "ARP failed resolutions, count"
scalar University.Server.networkLayer.arp 	completedARPResolution:count 	0
attr title  "ARP completed resolutions, count"
scalar University.Server.lo0.lo 	rcvdPkFromHL:count 	0
attr interpolationmode  none
attr source  packetReceivedFromUpper
attr title  "packets received from higher layer, count"
scalar University.Server.lo0.lo 	rcvdPkFromHL:sum(packetBytes) 	0
attr interpolationmode  none
attr source  packetReceivedFromUpper
attr title  "packets received from higher layer, sum(packetBytes)"
scalar University.Server.lo0.lo 	passedUpPk:count 	0
attr interpolationmode  none
attr source  packetSentToUpper
attr title  "packets passed to higher layer, count"
scalar University.Server.lo0.lo 	passedUpPk:sum(packetBytes) 	0
attr interpolationmode  none
attr source  packetSentToUpper
attr title  "packets passed to higher layer, sum(packetBytes)"
scalar University.Server.lo0.lo 	droppedPkBitError:count 	0
attr interpolationmode  none
attr source  dropPkBitError
attr title  "packets dropped/bit error, count"
scalar University.Server.lo0.lo 	droppedPkBitError:sum(packetBytes) 	0
attr interpolationmode  none
attr source  dropPkBitError
attr title  "packets dropped/bit error, sum(packetBytes)"
statistic University.Server.ppp[0].queue 	queueingTime:histogram
field count 3971368
field mean 0.00021005413551705
field stddev 0.0011714414511828
field sum 834.20227206009
field sqrsum 5.6250355791204
field min 0
field max 0.012056
attr interpolationmode  none
attr title  "queueing time, histogram"
bin	-INF	0
bin	-6.028e-05	0
bin	-5.2242666666667e-05	0
bin	-4.4205333333333e-05	0
bin	-3.6168e-05	0
bin	-2.8130666666667e-05	0
bin	-2.0093333333333e-05	0
bin	-1.2056e-05	0
bin	-4.0186666666667e-06	2887086
bin	4.0186666666667e-06	130
bin	1.2056e-05	183
bin	2.0093333333333e-05	205
bin	2.8130666666667e-05	134
bin	3.6168e-05	198
bin	4.4205333333333e-05	207
bin	5.2242666666667e-05	223
bin	6.028e-05	188
bin	6.8317333333333e-05	168
bin	7.6354666666667e-05	145
bin	8.4392e-05	983
bin	9.2429333333333e-05	115
bin	0.00010046666666667	141
bin	0.000108504	136
bin	0.00011654133333333	932883
bin	0.00012457866666667	110
bin	0.000132616	120
bin	0.00014065333333333	127
bin	0.00014869066666667	77
bin	0.000156728	120
bin	0.00016476533333333	126
bin	0.00017280266666667	119
bin	0.00018084	147444
scalar University.Server.ppp[0].queue 	dropPk:count 	417109
attr interpolationmode  none
attr source  dropPkByQueue
attr title  "dropped packets, count"
scalar University.Server.ppp[0].queue 	dropPk:sum(packetBytes) 	625056945
attr interpolationmode  none
attr source  dropPkByQueue
attr title  "dropped packets, sum(packetBytes)"
scalar University.Server.ppp[0].queue 	queueLength:max 	100
attr interpolationmode  sample-hold
attr title  "queue length, max"
scalar University.Server.ppp[0].queue 	queueLength:timeavg 	0.15448184117007
attr interpolationmode  sample-hold
attr title  "queue length, timeavg"
scalar University.Server.ppp[0].queue 	rcvdPk:count 	4388477
attr interpolationmode  none
attr title  "received packets, count"
scalar University.Server.ppp[0].queue 	rcvdPk:sum(packetBytes) 	6169768110
attr interpolationmode  none
attr title  "received packets, sum(packetBytes)"
scalar University.Server.ppp[0].ppp 	rcvdPkFromHL:count 	3971368
attr interpolationmode  none
attr source  packetReceivedFromUpper
attr title  "packets received from higher layer, count"
scalar University.Server.ppp[0].ppp 	rcvdPkFromHL:sum(packetBytes) 	5544711165
attr interpolationmode  none
attr source  packetReceivedFromUpper
attr title  "packets received from higher layer, sum(packetBytes)"
scalar University.Server.ppp[0].ppp 	passedUpPk:count 	3760335
attr interpolationmode  none
attr source  packetSentToUpper
attr title  "packets passed to higher layer, count"
scalar University.Server.ppp[0].ppp 	passedUpPk:sum(packetBytes) 	507501596
attr interpolationmode  none
attr source  packetSentToUpper
attr title  "packets passed to higher layer, sum(packetBytes)"
scalar University.Server.ppp[0].ppp 	txPk:count 	3971368
attr interpolationmode  none
attr source  packetSentToLower
attr title  "packets transmitted, count"
scalar University.Server.ppp[0].ppp 	txPk:sum(packetBytes) 	5572510741
attr interpolationmode  none
attr source  packetSentToLower
attr title  "packets transmitted, sum(packetBytes)"
scalar University.Server.ppp[0].ppp 	droppedPkBitError:count 	0
attr interpolationmode  none
attr source  dropPkBitError
attr title  "packets dropped/bit error, count"
scalar University.Server.ppp[0].ppp 	droppedPkBitError:sum(packetBytes) 	0
attr interpolationmode  none
attr source  dropPkBitError
attr title  "packets dropped/bit error, sum(packetBytes)"
scalar University.Server.ppp[0].ppp 	droppedPkIfaceDown:count 	0
attr interpolationmode  none
attr source  dropPkIfaceDown
attr title  "packets dropped/interface down, count"
scalar University.Server.ppp[0].ppp 	droppedPkIfaceDown:sum(packetBytes) 	0
attr interpolationmode  none
attr source  dropPkIfaceDown
attr title  "packets dropped/interface down, sum(packetBytes)"
scalar University.Server.ppp[0].ppp 	rxPkOk:count 	3760335
attr interpolationmode  none
attr source  rxPkOk
attr title  "packets received OK, count"
scalar University.Server.ppp[0].ppp 	rxPkOk:sum(packetBytes) 	533823941
attr interpolationmode  none
attr source  rxPkOk
attr title  "packets received OK, sum(packetBytes)"
scalar University.Server.ppp[0].ppp 	txState:timeavg 	0.082555682057076
attr interpolationmode  sample-hold
attr title  "tx state, timeavg"
scalar University.Server.tcpApp[0] 	sentPk:count 	5606
attr interpolationmode  none
attr source  sentPk
attr title  "packets sent, count"
scalar University.Server.tcpApp[0] 	sentPk:sum(packetBytes) 	4720345064
attr interpolationmode  none
attr source  sentPk
attr title  "packets sent, sum(packetBytes)"
scalar University.Server.tcpApp[0] 	rcvdPk:count 	5606
attr interpolationmode  none
attr source  rcvdPk
attr title  "packets received, count"
scalar University.Server.tcpApp[0] 	rcvdPk:sum(packetBytes) 	5606
attr interpolationmode  none
attr source  rcvdPk
attr title  "packets received, sum(packetBytes)"
statistic University.Server.tcpApp[0] 	endToEndDelay:histogram
field count 5606
field mean 0.028210188144196
field stddev 0.040075086863116
field sum 158.14631473637
field sqrsum 13.463037843643
field min 0.026997836902
field max 3.026299844868
attr interpolationmode  none
attr source  messageAge(rcvdPk)
attr title  "end-to-end delay, histogram"
attr unit  s
bin	-INF	0
bin	0.022261491819	0
bin	0.022893004820333	0
bin	0.023524517821667	0
bin	0.024156030823	0
bin	0.024787543824333	0
bin	0.025419056825667	0
bin	0.026050569827	0
bin	0.026682082828333	3172
bin	0.027313595829667	818
bin	0.027945108831	885
bin	0.028576621832333	330
bin	0.029208134833667	167
bin	0.029839647835	79
bin	0.030471160836333	45
bin	0.031102673837667	29
bin	0.031734186839	25
bin	0.032365699840333	10
bin	0.032997212841667	13
bin	0.033628725843	7
bin	0.034260238844333	1
bin	0.034891751845667	2
bin	0.035523264847	3
bin	0.036154777848333	3
bin	0.036786290849667	2
bin	0.037417803851	3
bin	0.038049316852333	2
bin	0.038680829853667	1
bin	0.039312342855	1
bin	0.039943855856333	1
bin	0.040575368857667	0
bin	0.041206881859	7
scalar University.Server.tcpApp[1] 	sentPk:count 	313
attr interpolationmode  none
attr source  sentPk
attr title  "packets sent, count"
scalar University.Server.tcpApp[1] 	sentPk:sum(packetBytes) 	313
attr interpolationmode  none
attr source  sentPk
attr title  "packets sent, sum(packetBytes)"
scalar University.Server.tcpApp[1] 	rcvdPk:count 	313
attr interpolationmode  none
attr source  rcvdPk
attr title  "packets received, count"
scalar University.Server.tcpApp[1] 	rcvdPk:sum(packetBytes) 	328204288
attr interpolationmode  none
attr source  rcvdPk
attr title  "packets received, sum(packetBytes)"
statistic University.Server.tcpApp[1] 	endToEndDelay:histogram
field count 313
field mean 15.60108560862
field stddev 6.8273428221102
field sum 4883.1397954981
field sqrsum 90725.41631174
field min 3.58144312564
field max 61.144076300718
attr interpolationmode  none
attr source  messageAge(rcvdPk)
attr title  "end-to-end delay, histogram"
attr unit  s
bin	-INF	0
bin	-9.292032506965	0
bin	-7.5453488606301	0
bin	-5.7986652142951	0
bin	-4.0519815679602	0
bin	-2.3052979216253	0
bin	-0.55861427529033	0
bin	1.1880693710446	0
bin	2.9347530173795	8
bin	4.6814366637145	6
bin	6.4281203100494	17
bin	8.1748039563843	23
bin	9.9214876027193	32
bin	11.668171249054	48
bin	13.414854895389	30
bin	15.161538541724	35
bin	16.908222188059	25
bin	18.654905834394	25
bin	20.401589480729	27
bin	22.148273127064	10
bin	23.894956773399	11
bin	25.641640419734	4
bin	27.388324066069	3
bin	29.135007712404	3
bin	30.881691358738	2
bin	32.628375005073	0
bin	34.375058651408	1
bin	36.121742297743	0
bin	37.868425944078	0
bin	39.615109590413	1
bin	41.361793236748	0
bin	43.108476883083	2
scalar University.CCTV.networkLayer.arp 	initiatedARPResolution:count 	0
attr title  "ARP initiated resolutions, count"
scalar University.CCTV.networkLayer.arp 	sentReply:count 	0
attr title  "ARP replies sent, count"
scalar University.CCTV.networkLayer.arp 	sentReq:count 	0
attr title  "ARP request sent, count"
scalar University.CCTV.networkLayer.arp 	failedARPResolution:count 	0
attr title  "ARP failed resolutions, count"
scalar University.CCTV.networkLayer.arp 	completedARPResolution:count 	0
attr title  "ARP completed resolutions, count"
scalar University.CCTV.lo0.lo 	rcvdPkFromHL:count 	0
attr interpolationmode  none
attr source  packetReceivedFromUpper
attr title  "packets received from higher layer, count"
scalar University.CCTV.lo0.lo 	rcvdPkFromHL:sum(packetBytes) 	0
attr interpolationmode  none
attr source  packetReceivedFromUpper
attr title  "packets received from higher layer, sum(packetBytes)"
scalar University.CCTV.lo0.lo 	passedUpPk:count 	0
attr interpolationmode  none
attr source  packetSentToUpper
attr title  "packets passed to higher layer, count"
scalar University.CCTV.lo0.lo 	passedUpPk:sum(packetBytes) 	0
attr interpolationmode  none
attr source  packetSentToUpper
attr title  "packets passed to higher layer, sum(packetBytes)"
scalar University.CCTV.lo0.lo 	droppedPkBitError:count 	0
attr interpolationmode  none
attr source  dropPkBitError
attr title  "packets dropped/bit error, count"
scalar University.CCTV.lo0.lo 	droppedPkBitError:sum(packetBytes) 	0
attr interpolationmode  none
attr source  dropPkBitError
attr title  "packets dropped/bit error, sum(packetBytes)"
scalar University.CCTV.eth[0].mac 	"simulated time" 	5400.0021345018
scalar University.CCTV.eth[0].mac 	full-duplex 	1
scalar University.CCTV.eth[0].mac 	"frames/sec sent" 	0
scalar University.CCTV.eth[0].mac 	"frames/sec rcvd" 	0
scalar University.CCTV.eth[0].mac 	"bits/sec sent" 	0
scalar University.CCTV.eth[0].mac 	"bits/sec rcvd" 	0
scalar University.CCTV.eth[0].mac 	"rx channel idle (%)" 	100
scalar University.CCTV.eth[0].mac 	"rx channel utilization (%)" 	0
scalar University.CCTV.eth[0].mac 	rxPkFromHL:count 	0
attr interpolationmode  none
attr source  rxPkFromHL
attr title  "packet bytes from higher layer, count"
scalar University.CCTV.eth[0].mac 	rxPkFromHL:sum(packetBytes) 	0
attr interpolationmode  none
attr source  rxPkFromHL
attr title  "packet bytes from higher layer, sum(packetBytes)"
scalar University.CCTV.eth[0].mac 	rxPausePkUnits:count 	0
attr interpolationmode  none
attr title  "pause units received, count"
scalar University.CCTV.eth[0].mac 	rxPausePkUnits:sum 	0
attr interpolationmode  none
attr title  "pause units received, sum"
scalar University.CCTV.eth[0].mac 	txPausePkUnits:count 	0
attr interpolationmode  none
attr title  "pause units sent, count"
scalar University.CCTV.eth[0].mac 	txPausePkUnits:sum 	0
attr interpolationmode  none
attr title  "pause units sent, sum"
scalar University.CCTV.eth[0].mac 	txPk:count 	0
attr interpolationmode  none
attr source  txPk
attr title  "packets transmitted, count"
scalar University.CCTV.eth[0].mac 	txPk:sum(packetBytes) 	0
attr interpolationmode  none
attr source  txPk
attr title  "packets transmitted, sum(packetBytes)"
scalar University.CCTV.eth[0].mac 	droppedPkNotForUs:count 	0
attr interpolationmode  none
attr source  dropPkNotForUs
attr title  "packets dropped/not for us, count"
scalar University.CCTV.eth[0].mac 	droppedPkNotForUs:sum(packetBytes) 	0
attr interpolationmode  none
attr source  dropPkNotForUs
attr title  "packets dropped/not for us, sum(packetBytes)"
scalar University.CCTV.eth[0].mac 	passedUpPk:count 	0
attr interpolationmode  none
attr source  packetSentToUpper
attr title  "packets passed to higher layer, count"
scalar University.CCTV.eth[0].mac 	passedUpPk:sum(packetBytes) 	0
attr interpolationmode  none
attr source  packetSentToUpper
attr title  "packets passed to higher layer, sum(packetBytes)"
scalar University.CCTV.eth[0].mac 	droppedPkBitError:count 	0
attr interpolationmode  none
attr source  dropPkBitError
attr title  "packets dropped/bit error, count"
scalar University.CCTV.eth[0].mac 	droppedPkBitError:sum(packetBytes) 	0
attr interpolationmode  none
attr source  dropPkBitError
attr title  "packets dropped/bit error, sum(packetBytes)"
scalar University.CCTV.eth[0].mac 	droppedPkIfaceDown:count 	0
attr interpolationmode  none
attr source  dropPkIfaceDown
attr title  "packets dropped/interface down, count"
scalar University.CCTV.eth[0].mac 	droppedPkIfaceDown:sum(packetBytes) 	0
attr interpolationmode  none
attr source  dropPkIfaceDown
attr title  "packets dropped/interface down, sum(packetBytes)"
scalar University.CCTV.eth[0].mac 	rxPkOk:count 	0
attr interpolationmode  none
attr source  rxPkOk
attr title  "packets received OK, count"
scalar University.CCTV.eth[0].mac 	rxPkOk:sum(packetBytes) 	0
attr interpolationmode  none
attr source  rxPkOk
attr title  "packets received OK, sum(packetBytes)"
scalar University.CCTV.eth[0].encap 	pauseSent:count 	0
attr title  "pause sent, count"
scalar University.CCTV.eth[0].encap 	pauseSent:sum 	0
attr title  "pause sent, sum"
scalar University.CCTV.eth[0].encap 	decapPk:count 	0
attr interpolationmode  none
attr source  decapPk
attr title  "packets decapsulated, count"
scalar University.CCTV.eth[0].encap 	decapPk:sum(packetBytes) 	0
attr interpolationmode  none
attr source  decapPk
attr title  "packets decapsulated, sum(packetBytes)"
scalar University.CCTV.eth[0].encap 	encapPk:count 	0
attr interpolationmode  none
attr source  encapPk
attr title  "packets encapsulated, count"
scalar University.CCTV.eth[0].encap 	encapPk:sum(packetBytes) 	0
attr interpolationmode  none
attr source  encapPk
attr title  "packets encapsulated, sum(packetBytes)"
scalar University.whttpStudents[0].networkLayer.arp 	initiatedARPResolution:count 	1
attr title  "ARP initiated resolutions, count"
scalar University.whttpStudents[0].networkLayer.arp 	sentReply:count 	43
attr title  "ARP replies sent, count"
scalar University.whttpStudents[0].networkLayer.arp 	sentReq:count 	1
attr title  "ARP request sent, count"
scalar University.whttpStudents[0].networkLayer.arp 	failedARPResolution:count 	0
attr title  "ARP failed resolutions, count"
scalar University.whttpStudents[0].networkLayer.arp 	completedARPResolution:count 	1541
attr title  "ARP completed resolutions, count"
scalar University.whttpStudents[0].lo0.lo 	rcvdPkFromHL:count 	0
attr interpolationmode  none
attr source  packetReceivedFromUpper
attr title  "packets received from higher layer, count"
scalar University.whttpStudents[0].lo0.lo 	rcvdPkFromHL:sum(packetBytes) 	0
attr interpolationmode  none
attr source  packetReceivedFromUpper
attr title  "packets received from higher layer, sum(packetBytes)"
scalar University.whttpStudents[0].lo0.lo 	passedUpPk:count 	0
attr interpolationmode  none
attr source  packetSentToUpper
attr title  "packets passed to higher layer, count"
scalar University.whttpStudents[0].lo0.lo 	passedUpPk:sum(packetBytes) 	0
attr interpolationmode  none
attr source  packetSentToUpper
attr title  "packets passed to higher layer, sum(packetBytes)"
scalar University.whttpStudents[0].lo0.lo 	droppedPkBitError:count 	0
attr interpolationmode  none
attr source  dropPkBitError
attr title  "packets dropped/bit error, count"
scalar University.whttpStudents[0].lo0.lo 	droppedPkBitError:sum(packetBytes) 	0
attr interpolationmode  none
attr source  dropPkBitError
attr title  "packets dropped/bit error, sum(packetBytes)"
scalar University.whttpStudents[0].wlan[0].agent 	dropConfirm:count 	0
attr title  "dropped confirms, count"
scalar University.whttpStudents[0].wlan[0].agent 	acceptConfirm:count 	24
attr title  "accepted confirms, count"
scalar University.whttpStudents[0].wlan[0].agent 	sentRequest:count 	24
attr title  "sent requests, count"
scalar University.whttpStudents[0].wlan[0].mgmt 	dropPkByQueue:count 	0
attr interpolationmode  none
attr source  dropPkByQueue
attr title  "packets dropped by queue, count"
scalar University.whttpStudents[0].wlan[0].mgmt 	dropPkByQueue:sum(packetBytes) 	0
attr interpolationmode  none
attr source  dropPkByQueue
attr title  "packets dropped by queue, sum(packetBytes)"
scalar University.whttpStudents[0].wlan[0].mgmt 	dataQueueLen:max 	12
attr interpolationmode  sample-hold
attr title  "data queue length, max"
scalar University.whttpStudents[0].wlan[0].mgmt 	dataQueueLen:timeavg 	0.0025014102690755
attr interpolationmode  sample-hold
attr title  "data queue length, timeavg"
scalar University.whttpStudents[0].wlan[0].mac 	"number of received packets" 	104379
scalar University.whttpStudents[0].wlan[0].mac 	"number of collisions" 	296084
scalar University.whttpStudents[0].wlan[0].mac 	"number of internal collisions" 	0
scalar University.whttpStudents[0].wlan[0].mac 	"number of retry for AC 0" 	7514
scalar University.whttpStudents[0].wlan[0].mac 	"sent and received bits" 	68614448
scalar University.whttpStudents[0].wlan[0].mac 	"sent packet within AC 0" 	104592
scalar University.whttpStudents[0].wlan[0].mac 	"sent in TXOP " 	0
scalar University.whttpStudents[0].wlan[0].mac 	"sentWithoutRetry AC 0" 	97209
scalar University.whttpStudents[0].wlan[0].mac 	"numGivenUp AC 0" 	0
scalar University.whttpStudents[0].wlan[0].mac 	"numDropped AC 0" 	0
scalar University.whttpStudents[0].wlan[0].mac 	rcvdPkFromHL:count 	104600
attr interpolationmode  none
attr source  packetReceivedFromUpper
attr title  "packets received from higher layer, count"
scalar University.whttpStudents[0].wlan[0].mac 	rcvdPkFromHL:sum(packetBytes) 	8576806
attr interpolationmode  none
attr source  packetReceivedFromUpper
attr title  "packets received from higher layer, sum(packetBytes)"
scalar University.whttpStudents[0].wlan[0].mac 	passedUpPk:count 	158770
attr interpolationmode  none
attr source  packetSentToUpper
attr title  "packets passed to higher layer, count"
scalar University.whttpStudents[0].wlan[0].mac 	passedUpPk:sum(packetBytes) 	163740505
attr interpolationmode  none
attr source  packetSentToUpper
attr title  "packets passed to higher layer, sum(packetBytes)"
scalar University.whttpStudents[0].wlan[0].mac 	rcvdPkFromLL:count 	15653745
attr interpolationmode  none
attr source  packetReceivedFromLower
attr title  "packets received from lower layer, count"
scalar University.whttpStudents[0].wlan[0].mac 	rcvdPkFromLL:sum(packetBytes) 	6746383457
attr interpolationmode  none
attr source  packetReceivedFromLower
attr title  "packets received from lower layer, sum(packetBytes)"
scalar University.whttpStudents[0].wlan[0].mac 	sentDownPk:count 	216493
attr interpolationmode  none
attr source  packetSentToLower
attr title  "packets sent to lower layer, count"
scalar University.whttpStudents[0].wlan[0].mac 	sentDownPk:sum(packetBytes) 	10653410
attr interpolationmode  none
attr source  packetSentToLower
attr title  "packets sent to lower layer, sum(packetBytes)"
scalar University.whttpStudents[0].wlan[0].radio 	lossRate:min 	0
attr interpolationmode  backward-sample-hold
attr title  "packet loss rate, min"
scalar University.whttpStudents[0].wlan[0].radio 	lossRate:max 	0.22
attr interpolationmode  backward-sample-hold
attr title  "packet loss rate, max"
scalar University.whttpStudents[0].wlan[0].radio 	lossRate:timeavg 	0.01708387435633
attr interpolationmode  backward-sample-hold
attr title  "packet loss rate, timeavg"
statistic University.whttpStudents[0].wlan[0].radio 	channelNo:histogram
field count 1
field mean 0
field stddev -nan
field sum 0
field sqrsum 0
field min 0
field max 0
attr interpolationmode  sample-hold
attr title  "channel no, histogram"
bin	-INF	0
bin	-0.5	0
bin	-0.46666666666667	0
bin	-0.43333333333333	0
bin	-0.4	0
bin	-0.36666666666667	0
bin	-0.33333333333333	0
bin	-0.3	0
bin	-0.26666666666667	0
bin	-0.23333333333333	0
bin	-0.2	0
bin	-0.16666666666667	0
bin	-0.13333333333333	0
bin	-0.1	0
bin	-0.066666666666667	0
bin	-0.033333333333333	0
bin	0	1
bin	0.033333333333333	0
bin	0.066666666666667	0
bin	0.1	0
bin	0.13333333333333	0
bin	0.16666666666667	0
bin	0.2	0
bin	0.23333333333333	0
bin	0.26666666666667	0
bin	0.3	0
bin	0.33333333333333	0
bin	0.36666666666667	0
bin	0.4	0
bin	0.43333333333333	0
bin	0.46666666666667	0
bin	0.5	0
scalar University.whttpStudents[0].wlan[0].radio 	radioState:count 	31750331
attr interpolationmode  sample-hold
attr title  "radio state (enum), count"
scalar University.whttpStudents[0].wlan[0].radio 	bitrate:min 	54000000
attr interpolationmode  sample-hold
attr title  "tx bitrate, min"
attr unit  bps
scalar University.whttpStudents[0].wlan[0].radio 	bitrate:max 	54000000
attr interpolationmode  sample-hold
attr title  "tx bitrate, max"
attr unit  bps
scalar University.whttpStudents[0].wlan[0].radio 	bitrate:timeavg 	54000000
attr interpolationmode  sample-hold
attr title  "tx bitrate, timeavg"
attr unit  bps
scalar University.whttpStudents[0].tcpApp[0] 	numActiveSessions:max 	1
attr interpolationmode  sample-hold
attr source  sum(connect)
attr title  "number of active sessions, max"
scalar University.whttpStudents[0].tcpApp[0] 	numActiveSessions:timeavg 	0.54355214360987
attr interpolationmode  sample-hold
attr source  sum(connect)
attr title  "number of active sessions, timeavg"
scalar University.whttpStudents[0].tcpApp[0] 	numSessions:last 	160
attr source  sum(connect+1)/2
attr title  "total number of sessions, last"
scalar University.whttpStudents[0].tcpApp[0] 	sentPk:count 	160
attr interpolationmode  none
attr source  sentPk
attr title  "packets sent, count"
scalar University.whttpStudents[0].tcpApp[0] 	sentPk:sum(packetBytes) 	160
attr interpolationmode  none
attr source  sentPk
attr title  "packets sent, sum(packetBytes)"
scalar University.whttpStudents[0].tcpApp[0] 	rcvdPk:count 	159
attr interpolationmode  none
attr source  rcvdPk
attr title  "packets received, count"
scalar University.whttpStudents[0].tcpApp[0] 	rcvdPk:sum(packetBytes) 	142593102
attr interpolationmode  none
attr source  rcvdPk
attr title  "packets received, sum(packetBytes)"
statistic University.whttpStudents[0].tcpApp[0] 	endToEndDelay:histogram
field count 159
field mean 17.691412058742
field stddev 20.341042333431
field sum 2812.93451734
field sqrsum 115138.54814777
field min 0.665445458598
field max 119.36856163475
attr interpolationmode  none
attr source  messageAge(rcvdPk)
attr title  "end-to-end delay, histogram"
attr unit  s
bin	-INF	0
bin	-58.68611262948	0
bin	-50.77257155107	0
bin	-42.85903047266	0
bin	-34.945489394249	0
bin	-27.031948315839	0
bin	-19.118407237428	0
bin	-11.204866159018	0
bin	-3.2913250806072	44
bin	4.6222159978032	44
bin	12.535757076214	25
bin	20.449298154624	15
bin	28.362839233035	8
bin	36.276380311445	6
bin	44.189921389856	8
bin	52.103462468266	1
bin	60.017003546676	3
bin	67.930544625087	0
bin	75.844085703497	3
bin	83.757626781908	0
bin	91.671167860318	0
bin	99.584708938729	0
bin	107.49825001714	0
bin	115.41179109555	2
bin	123.32533217396	0
bin	131.23887325237	0
bin	139.15241433078	0
bin	147.06595540919	0
bin	154.9794964876	0
bin	162.89303756601	0
bin	170.80657864442	0
bin	178.72011972283	0
scalar University.whttpStudents[1].networkLayer.arp 	initiatedARPResolution:count 	1
attr title  "ARP initiated resolutions, count"
scalar University.whttpStudents[1].networkLayer.arp 	sentReply:count 	41
attr title  "ARP replies sent, count"
scalar University.whttpStudents[1].networkLayer.arp 	sentReq:count 	1
attr title  "ARP request sent, count"
scalar University.whttpStudents[1].networkLayer.arp 	failedARPResolution:count 	0
attr title  "ARP failed resolutions, count"
scalar University.whttpStudents[1].networkLayer.arp 	completedARPResolution:count 	1547
attr title  "ARP completed resolutions, count"
scalar University.whttpStudents[1].lo0.lo 	rcvdPkFromHL:count 	0
attr interpolationmode  none
attr source  packetReceivedFromUpper
attr title  "packets received from higher layer, count"
scalar University.whttpStudents[1].lo0.lo 	rcvdPkFromHL:sum(packetBytes) 	0
attr interpolationmode  none
attr source  packetReceivedFromUpper
attr title  "packets received from higher layer, sum(packetBytes)"
scalar University.whttpStudents[1].lo0.lo 	passedUpPk:count 	0
attr interpolationmode  none
attr source  packetSentToUpper
attr title  "packets passed to higher layer, count"
scalar University.whttpStudents[1].lo0.lo 	passedUpPk:sum(packetBytes) 	0
attr interpolationmode  none
attr source  packetSentToUpper
attr title  "packets passed to higher layer, sum(packetBytes)"
scalar University.whttpStudents[1].lo0.lo 	droppedPkBitError:count 	0
attr interpolationmode  none
attr source  dropPkBitError
attr title  "packets dropped/bit error, count"
scalar University.whttpStudents[1].lo0.lo 	droppedPkBitError:sum(packetBytes) 	0
attr interpolationmode  none
attr source  dropPkBitError
attr title  "packets dropped/bit error, sum(packetBytes)"
scalar University.whttpStudents[1].wlan[0].agent 	dropConfirm:count 	0
attr title  "dropped confirms, count"
scalar University.whttpStudents[1].wlan[0].agent 	acceptConfirm:count 	24
attr title  "accepted confirms, count"
scalar University.whttpStudents[1].wlan[0].agent 	sentRequest:count 	24
attr title  "sent requests, count"
scalar University.whttpStudents[1].wlan[0].mgmt 	dropPkByQueue:count 	0
attr interpolationmode  none
attr source  dropPkByQueue
attr title  "packets dropped by queue, count"
scalar University.whttpStudents[1].wlan[0].mgmt 	dropPkByQueue:sum(packetBytes) 	0
attr interpolationmode  none
attr source  dropPkByQueue
attr title  "packets dropped by queue, sum(packetBytes)"
scalar University.whttpStudents[1].wlan[0].mgmt 	dataQueueLen:max 	9
attr interpolationmode  sample-hold
attr title  "data queue length, max"
scalar University.whttpStudents[1].wlan[0].mgmt 	dataQueueLen:timeavg 	0.002516739023998
attr interpolationmode  sample-hold
attr title  "data queue length, timeavg"
scalar University.whttpStudents[1].wlan[0].mac 	"number of received packets" 	97594
scalar University.whttpStudents[1].wlan[0].mac 	"number of collisions" 	296408
scalar University.whttpStudents[1].wlan[0].mac 	"number of internal collisions" 	0
scalar University.whttpStudents[1].wlan[0].mac 	"number of retry for AC 0" 	7148
scalar University.whttpStudents[1].wlan[0].mac 	"sent and received bits" 	64164120
scalar University.whttpStudents[1].wlan[0].mac 	"sent packet within AC 0" 	97807
scalar University.whttpStudents[1].wlan[0].mac 	"sent in TXOP " 	0
scalar University.whttpStudents[1].wlan[0].mac 	"sentWithoutRetry AC 0" 	90745
scalar University.whttpStudents[1].wlan[0].mac 	"numGivenUp AC 0" 	0
scalar University.whttpStudents[1].wlan[0].mac 	"numDropped AC 0" 	0
scalar University.whttpStudents[1].wlan[0].mac 	rcvdPkFromHL:count 	97815
attr interpolationmode  none
attr source  packetReceivedFromUpper
attr title  "packets received from higher layer, count"
scalar University.whttpStudents[1].wlan[0].mac 	rcvdPkFromHL:sum(packetBytes) 	8020515
attr interpolationmode  none
attr source  packetReceivedFromUpper
attr title  "packets received from higher layer, sum(packetBytes)"
scalar University.whttpStudents[1].wlan[0].mac 	passedUpPk:count 	152027
attr interpolationmode  none
attr source  packetSentToUpper
attr title  "packets passed to higher layer, count"
scalar University.whttpStudents[1].wlan[0].mac 	passedUpPk:sum(packetBytes) 	153385349
attr interpolationmode  none
attr source  packetSentToUpper
attr title  "packets passed to higher layer, sum(packetBytes)"
scalar University.whttpStudents[1].wlan[0].mac 	rcvdPkFromLL:count 	15667681
attr interpolationmode  none
attr source  packetReceivedFromLower
attr title  "packets received from lower layer, count"
scalar University.whttpStudents[1].wlan[0].mac 	rcvdPkFromLL:sum(packetBytes) 	6748441387
attr interpolationmode  none
attr source  packetReceivedFromLower
attr title  "packets received from lower layer, sum(packetBytes)"
scalar University.whttpStudents[1].wlan[0].mac 	sentDownPk:count 	202557
attr interpolationmode  none
attr source  packetSentToLower
attr title  "packets sent to lower layer, count"
scalar University.whttpStudents[1].wlan[0].mac 	sentDownPk:sum(packetBytes) 	9972097
attr interpolationmode  none
attr source  packetSentToLower
attr title  "packets sent to lower layer, sum(packetBytes)"
scalar University.whttpStudents[1].wlan[0].radio 	lossRate:min 	0
attr interpolationmode  backward-sample-hold
attr title  "packet loss rate, min"
scalar University.whttpStudents[1].wlan[0].radio 	lossRate:max 	0.22
attr interpolationmode  backward-sample-hold
attr title  "packet loss rate, max"
scalar University.whttpStudents[1].wlan[0].radio 	lossRate:timeavg 	0.017104800524962
attr interpolationmode  backward-sample-hold
attr title  "packet loss rate, timeavg"
statistic University.whttpStudents[1].wlan[0].radio 	channelNo:histogram
field count 1
field mean 0
field stddev -nan
field sum 0
field sqrsum 0
field min 0
field max 0
attr interpolationmode  sample-hold
attr title  "channel no, histogram"
bin	-INF	0
bin	-0.5	0
bin	-0.46666666666667	0
bin	-0.43333333333333	0
bin	-0.4	0
bin	-0.36666666666667	0
bin	-0.33333333333333	0
bin	-0.3	0
bin	-0.26666666666667	0
bin	-0.23333333333333	0
bin	-0.2	0
bin	-0.16666666666667	0
bin	-0.13333333333333	0
bin	-0.1	0
bin	-0.066666666666667	0
bin	-0.033333333333333	0
bin	0	1
bin	0.033333333333333	0
bin	0.066666666666667	0
bin	0.1	0
bin	0.13333333333333	0
bin	0.16666666666667	0
bin	0.2	0
bin	0.23333333333333	0
bin	0.26666666666667	0
bin	0.3	0
bin	0.33333333333333	0
bin	0.36666666666667	0
bin	0.4	0
bin	0.43333333333333	0
bin	0.46666666666667	0
bin	0.5	0
scalar University.whttpStudents[1].wlan[0].radio 	radioState:count 	31749859
attr interpolationmode  sample-hold
attr title  "radio state (enum), count"
scalar University.whttpStudents[1].wlan[0].radio 	bitrate:min 	54000000
attr interpolationmode  sample-hold
attr title  "tx bitrate, min"
attr unit  bps
scalar University.whttpStudents[1].wlan[0].radio 	bitrate:max 	54000000
attr interpolationmode  sample-hold
attr title  "tx bitrate, max"
attr unit  bps
scalar University.whttpStudents[1].wlan[0].radio 	bitrate:timeavg 	54000000
attr interpolationmode  sample-hold
attr title  "tx bitrate, timeavg"
attr unit  bps
scalar University.whttpStudents[1].tcpApp[0] 	numActiveSessions:max 	1
attr interpolationmode  sample-hold
attr source  sum(connect)
attr title  "number of active sessions, max"
scalar University.whttpStudents[1].tcpApp[0] 	numActiveSessions:timeavg 	0.5437060754508
attr interpolationmode  sample-hold
attr source  sum(connect)
attr title  "number of active sessions, timeavg"
scalar University.whttpStudents[1].tcpApp[0] 	numSessions:last 	161
attr source  sum(connect+1)/2
attr title  "total number of sessions, last"
scalar University.whttpStudents[1].tcpApp[0] 	sentPk:count 	161
attr interpolationmode  none
attr source  sentPk
attr title  "packets sent, count"
scalar University.whttpStudents[1].tcpApp[0] 	sentPk:sum(packetBytes) 	161
attr interpolationmode  none
attr source  sentPk
attr title  "packets sent, sum(packetBytes)"
scalar University.whttpStudents[1].tcpApp[0] 	rcvdPk:count 	161
attr interpolationmode  none
attr source  rcvdPk
attr title  "packets received, count"
scalar University.whttpStudents[1].tcpApp[0] 	rcvdPk:sum(packetBytes) 	129983533
attr interpolationmode  none
attr source  rcvdPk
attr title  "packets received, sum(packetBytes)"
statistic University.whttpStudents[1].tcpApp[0] 	endToEndDelay:histogram
field count 161
field mean 17.50723230429
field stddev 20.56938337541
field sum 2818.6644009906
field sqrsum 117042.93764711
field min 0.429999154374
field max 111.75646561228
attr interpolationmode  none
attr source  messageAge(rcvdPk)
attr title  "end-to-end delay, histogram"
attr unit  s
bin	-INF	0
bin	-55.220395277101	0
bin	-47.799201459795	0
bin	-40.378007642489	0
bin	-32.956813825183	0
bin	-25.535620007877	0
bin	-18.114426190571	0
bin	-10.693232373265	0
bin	-3.272038555959	46
bin	4.149155261347	38
bin	11.570349078653	28
bin	18.991542895959	17
bin	26.412736713265	10
bin	33.833930530571	3
bin	41.255124347877	2
bin	48.676318165183	7
[...]
scalar University.whostVideoConf.udpApp[0] 	sentPk:sum(packetBytes) 	189001400
attr interpolationmode  none
attr source  sentPk
attr title  "packets sent, sum(packetBytes)"
scalar University.whostVideoConf.udpApp[0] 	rcvdPk:count 	130442
attr interpolationmode  none
attr source  rcvdPk
attr title  "packets received, count"
scalar University.whostVideoConf.udpApp[0] 	rcvdPk:sum(packetBytes) 	182618800
attr interpolationmode  none
attr source  rcvdPk
attr title  "packets received, sum(packetBytes)"
statistic University.whostVideoConf.udpApp[0] 	rcvdPkLifetime:stats
field count 130442
field mean 0.045182709573281
field stddev 0.043216731822134
field sum 5893.7230021579
field sqrsum 509.91719241812
field min 0.016323934766
field max 0.974809533518
attr interpolationmode  none
attr source  messageAge(rcvdPk)
attr title  "received packet lifetime, stats"
attr unit  s
scalar University.whostVideoConf.udp 	droppedPkBadChecksum:count 	0
attr interpolationmode  none
attr title  "packets dropped (checksum error), count"
scalar University.whostVideoConf.udp 	droppedPkWrongPort:count 	0
attr interpolationmode  none
attr title  "packets dropped (wrong port), count"
scalar University.whostVideoConf.udp 	passedUpPk:count 	130442
attr interpolationmode  none
attr title  "packets passed up, count"
scalar University.whostVideoConf.udp 	sentPk:count 	135000
attr interpolationmode  none
attr source  sentPk
attr title  "packets sent, count"
scalar University.whostVideoConf.udp 	sentPk:sum(packetBytes) 	190080000
attr interpolationmode  none
attr source  sentPk
attr title  "packets sent, sum(packetBytes)"
scalar University.whostVideoConf.udp 	rcvdPk:count 	130442
attr interpolationmode  none
attr source  rcvdPk
attr title  "packets received, count"
scalar University.whostVideoConf.udp 	rcvdPk:sum(packetBytes) 	183662336
attr interpolationmode  none
attr source  rcvdPk
attr title  "packets received, sum(packetBytes)"
scalar University.whostFTP.networkLayer.arp 	initiatedARPResolution:count 	1
attr title  "ARP initiated resolutions, count"
scalar University.whostFTP.networkLayer.arp 	sentReply:count 	44
attr title  "ARP replies sent, count"
scalar University.whostFTP.networkLayer.arp 	sentReq:count 	2
attr title  "ARP request sent, count"
scalar University.whostFTP.networkLayer.arp 	failedARPResolution:count 	0
attr title  "ARP failed resolutions, count"
scalar University.whostFTP.networkLayer.arp 	completedARPResolution:count 	1556
attr title  "ARP completed resolutions, count"
scalar University.whostFTP.lo0.lo 	rcvdPkFromHL:count 	0
attr interpolationmode  none
attr source  packetReceivedFromUpper
attr title  "packets received from higher layer, count"
scalar University.whostFTP.lo0.lo 	rcvdPkFromHL:sum(packetBytes) 	0
attr interpolationmode  none
attr source  packetReceivedFromUpper
attr title  "packets received from higher layer, sum(packetBytes)"
scalar University.whostFTP.lo0.lo 	passedUpPk:count 	0
attr interpolationmode  none
attr source  packetSentToUpper
attr title  "packets passed to higher layer, count"
scalar University.whostFTP.lo0.lo 	passedUpPk:sum(packetBytes) 	0
attr interpolationmode  none
attr source  packetSentToUpper
attr title  "packets passed to higher layer, sum(packetBytes)"
scalar University.whostFTP.lo0.lo 	droppedPkBitError:count 	0
attr interpolationmode  none
attr source  dropPkBitError
attr title  "packets dropped/bit error, count"
scalar University.whostFTP.lo0.lo 	droppedPkBitError:sum(packetBytes) 	0
attr interpolationmode  none
attr source  dropPkBitError
attr title  "packets dropped/bit error, sum(packetBytes)"
scalar University.whostFTP.wlan[0].agent 	dropConfirm:count 	0
attr title  "dropped confirms, count"
scalar University.whostFTP.wlan[0].agent 	acceptConfirm:count 	18
attr title  "accepted confirms, count"
scalar University.whostFTP.wlan[0].agent 	sentRequest:count 	18
attr title  "sent requests, count"
scalar University.whostFTP.wlan[0].mgmt 	dropPkByQueue:count 	43090
attr interpolationmode  none
attr source  dropPkByQueue
attr title  "packets dropped by queue, count"
scalar University.whostFTP.wlan[0].mgmt 	dropPkByQueue:sum(packetBytes) 	66263492
attr interpolationmode  none
attr source  dropPkByQueue
attr title  "packets dropped by queue, sum(packetBytes)"
scalar University.whostFTP.wlan[0].mgmt 	dataQueueLen:max 	50
attr interpolationmode  sample-hold
attr title  "data queue length, max"
scalar University.whostFTP.wlan[0].mgmt 	dataQueueLen:timeavg 	0.81127356514424
attr interpolationmode  sample-hold
attr title  "data queue length, timeavg"
scalar University.whostFTP.wlan[0].mac 	"number of received packets" 	219117
scalar University.whostFTP.wlan[0].mac 	"number of collisions" 	261253
scalar University.whostFTP.wlan[0].mac 	"number of internal collisions" 	0
scalar University.whostFTP.wlan[0].mac 	"number of retry for AC 0" 	41983
scalar University.whostFTP.wlan[0].mac 	"sent and received bits" 	3018053992
scalar University.whostFTP.wlan[0].mac 	"sent packet within AC 0" 	246630
scalar University.whostFTP.wlan[0].mac 	"sent in TXOP " 	0
scalar University.whostFTP.wlan[0].mac 	"sentWithoutRetry AC 0" 	213177
scalar University.whostFTP.wlan[0].mac 	"numGivenUp AC 0" 	2
scalar University.whostFTP.wlan[0].mac 	"numDropped AC 0" 	0
scalar University.whostFTP.wlan[0].mac 	rcvdPkFromHL:count 	246638
attr interpolationmode  none
attr source  packetReceivedFromUpper
attr title  "packets received from higher layer, count"
scalar University.whostFTP.wlan[0].mac 	rcvdPkFromHL:sum(packetBytes) 	377259833
attr interpolationmode  none
attr source  packetReceivedFromUpper
attr title  "packets received from higher layer, sum(packetBytes)"
scalar University.whostFTP.wlan[0].mac 	passedUpPk:count 	273868
attr interpolationmode  none
attr source  packetSentToUpper
attr title  "packets passed to higher layer, count"
scalar University.whostFTP.wlan[0].mac 	passedUpPk:sum(packetBytes) 	22222353
attr interpolationmode  none
attr source  packetSentToUpper
attr title  "packets passed to higher layer, sum(packetBytes)"
scalar University.whostFTP.wlan[0].mac 	rcvdPkFromLL:count 	15362500
attr interpolationmode  none
attr source  packetReceivedFromLower
attr title  "packets received from lower layer, count"
scalar University.whostFTP.wlan[0].mac 	rcvdPkFromLL:sum(packetBytes) 	6335495661
attr interpolationmode  none
attr source  packetReceivedFromLower
attr title  "packets received from lower layer, sum(packetBytes)"
scalar University.whostFTP.wlan[0].mac 	sentDownPk:count 	507738
attr interpolationmode  none
attr source  packetSentToLower
attr title  "packets sent to lower layer, count"
scalar University.whostFTP.wlan[0].mac 	sentDownPk:sum(packetBytes) 	444824244
attr interpolationmode  none
attr source  packetSentToLower
attr title  "packets sent to lower layer, sum(packetBytes)"
scalar University.whostFTP.wlan[0].radio 	lossRate:min 	0
attr interpolationmode  backward-sample-hold
attr title  "packet loss rate, min"
scalar University.whostFTP.wlan[0].radio 	lossRate:max 	0.22
attr interpolationmode  backward-sample-hold
attr title  "packet loss rate, max"
scalar University.whostFTP.wlan[0].radio 	lossRate:timeavg 	0.015276609571775
attr interpolationmode  backward-sample-hold
attr title  "packet loss rate, timeavg"
statistic University.whostFTP.wlan[0].radio 	channelNo:histogram
field count 1
field mean 0
field stddev -nan
field sum 0
field sqrsum 0
field min 0
field max 0
attr interpolationmode  sample-hold
attr title  "channel no, histogram"
bin	-INF	0
bin	-0.5	0
bin	-0.46666666666667	0
bin	-0.43333333333333	0
bin	-0.4	0
bin	-0.36666666666667	0
bin	-0.33333333333333	0
bin	-0.3	0
bin	-0.26666666666667	0
bin	-0.23333333333333	0
bin	-0.2	0
bin	-0.16666666666667	0
bin	-0.13333333333333	0
bin	-0.1	0
bin	-0.066666666666667	0
bin	-0.033333333333333	0
bin	0	1
bin	0.033333333333333	0
bin	0.066666666666667	0
bin	0.1	0
bin	0.13333333333333	0
bin	0.16666666666667	0
bin	0.2	0
bin	0.23333333333333	0
bin	0.26666666666667	0
bin	0.3	0
bin	0.33333333333333	0
bin	0.36666666666667	0
bin	0.4	0
bin	0.43333333333333	0
bin	0.46666666666667	0
bin	0.5	0
scalar University.whostFTP.wlan[0].radio 	radioState:count 	31773493
attr interpolationmode  sample-hold
attr title  "radio state (enum), count"
scalar University.whostFTP.wlan[0].radio 	bitrate:min 	54000000
attr interpolationmode  sample-hold
attr title  "tx bitrate, min"
attr unit  bps
scalar University.whostFTP.wlan[0].radio 	bitrate:max 	54000000
attr interpolationmode  sample-hold
attr title  "tx bitrate, max"
attr unit  bps
scalar University.whostFTP.wlan[0].radio 	bitrate:timeavg 	54000000
attr interpolationmode  sample-hold
attr title  "tx bitrate, timeavg"
attr unit  bps
scalar University.whostFTP.tcpApp[0] 	numActiveSessions:max 	1
attr interpolationmode  sample-hold
attr source  sum(connect)
attr title  "number of active sessions, max"
scalar University.whostFTP.tcpApp[0] 	numActiveSessions:timeavg 	0.96489005269891
attr interpolationmode  sample-hold
attr source  sum(connect)
attr title  "number of active sessions, timeavg"
scalar University.whostFTP.tcpApp[0] 	numSessions:last 	314
attr source  sum(connect+1)/2
attr title  "total number of sessions, last"
scalar University.whostFTP.tcpApp[0] 	sentPk:count 	314
attr interpolationmode  none
attr source  sentPk
attr title  "packets sent, count"
scalar University.whostFTP.tcpApp[0] 	sentPk:sum(packetBytes) 	329252864
attr interpolationmode  none
attr source  sentPk
attr title  "packets sent, sum(packetBytes)"
scalar University.whostFTP.tcpApp[0] 	rcvdPk:count 	313
attr interpolationmode  none
attr source  rcvdPk
attr title  "packets received, count"
scalar University.whostFTP.tcpApp[0] 	rcvdPk:sum(packetBytes) 	313
attr interpolationmode  none
attr source  rcvdPk
attr title  "packets received, sum(packetBytes)"
statistic University.whostFTP.tcpApp[0] 	endToEndDelay:histogram
field count 313
field mean 16.229621112469
field stddev 7.0160238324054
field sum 5079.8714082029
field sqrsum 97802.460465266
field min 3.769774116511
field max 61.331302809835
attr interpolationmode  none
attr source  messageAge(rcvdPk)
attr title  "end-to-end delay, histogram"
attr unit  s
bin	-INF	0
bin	-9.1058964593725	0
bin	-7.3591383301819	0
bin	-5.6123802009913	0
bin	-3.8656220718007	0
bin	-2.1188639426101	0
bin	-0.3721058134195	0
bin	1.3746523157711	0
bin	3.1214104449617	8
bin	4.8681685741523	6
bin	6.6149267033429	17
bin	8.3616848325335	17
bin	10.108442961724	31
bin	11.855201090915	42
bin	13.601959220105	33
bin	15.348717349296	37
bin	17.095475478486	23
bin	18.842233607677	29
bin	20.588991736868	30
bin	22.335749866058	12
bin	24.082507995249	9
bin	25.829266124439	5
bin	27.57602425363	3
bin	29.322782382821	3
bin	31.069540512011	3
bin	32.816298641202	0
bin	34.563056770392	1
bin	36.309814899583	0
bin	38.056573028774	0
bin	39.803331157964	1
bin	41.550089287155	1
bin	43.296847416345	2
scalar University.accessPoint.relayUnit 	"number of received BPDUs from STP module" 	0
scalar University.accessPoint.relayUnit 	"number of received frames from network (including BPDUs)" 	7836285
scalar University.accessPoint.relayUnit 	"number of dropped frames (including BPDUs)" 	0
scalar University.accessPoint.relayUnit 	"number of delivered BPDUs to the STP module" 	0
scalar University.accessPoint.relayUnit 	"number of dispatched BPDU frames to the network" 	0
scalar University.accessPoint.relayUnit 	"number of dispatched non-BDPU frames to the network" 	7836285
scalar University.accessPoint.wlan[0].mgmt 	dropPkByQueue:count 	80200
attr interpolationmode  none
attr source  dropPkByQueue
attr title  "packets dropped by queue, count"
scalar University.accessPoint.wlan[0].mgmt 	dropPkByQueue:sum(packetBytes) 	80300743
attr interpolationmode  none
attr source  dropPkByQueue
attr title  "packets dropped by queue, sum(packetBytes)"
scalar University.accessPoint.wlan[0].mgmt 	dataQueueLen:max 	50
attr interpolationmode  sample-hold
attr title  "data queue length, max"
scalar University.accessPoint.wlan[0].mgmt 	dataQueueLen:timeavg 	11.607518526378
attr interpolationmode  sample-hold
attr title  "data queue length, timeavg"
scalar University.accessPoint.wlan[0].mac 	"number of received packets" 	3897611
scalar University.accessPoint.wlan[0].mac 	"number of collisions" 	19242
scalar University.accessPoint.wlan[0].mac 	"number of internal collisions" 	0
scalar University.accessPoint.wlan[0].mac 	"number of retry for AC 0" 	282948
scalar University.accessPoint.wlan[0].mac 	"sent and received bits" 	44602416008
scalar University.accessPoint.wlan[0].mac 	"sent packet within AC 0" 	3858511
scalar University.accessPoint.wlan[0].mac 	"sent in TXOP " 	0
scalar University.accessPoint.wlan[0].mac 	"sentWithoutRetry AC 0" 	3589355
scalar University.accessPoint.wlan[0].mac 	"numGivenUp AC 0" 	0
scalar University.accessPoint.wlan[0].mac 	"numDropped AC 0" 	0
scalar University.accessPoint.wlan[0].mac 	rcvdPkFromHL:count 	3914130
attr interpolationmode  none
attr source  packetReceivedFromUpper
attr title  "packets received from higher layer, count"
scalar University.accessPoint.wlan[0].mac 	rcvdPkFromHL:sum(packetBytes) 	5575302001
attr interpolationmode  none
attr source  packetReceivedFromUpper
attr title  "packets received from higher layer, sum(packetBytes)"
scalar University.accessPoint.wlan[0].mac 	passedUpPk:count 	3897736
attr interpolationmode  none
attr source  packetSentToUpper
attr title  "packets passed to higher layer, count"
scalar University.accessPoint.wlan[0].mac 	passedUpPk:sum(packetBytes) 	863940316
attr interpolationmode  none
attr source  packetSentToUpper
attr title  "packets passed to higher layer, sum(packetBytes)"
scalar University.accessPoint.wlan[0].mac 	rcvdPkFromLL:count 	7775549
attr interpolationmode  none
attr source  packetReceivedFromLower
attr title  "packets received from lower layer, count"
scalar University.accessPoint.wlan[0].mac 	rcvdPkFromLL:sum(packetBytes) 	927472718
attr interpolationmode  none
attr source  packetReceivedFromLower
attr title  "packets received from lower layer, sum(packetBytes)"
scalar University.accessPoint.wlan[0].mac 	sentDownPk:count 	8094689
attr interpolationmode  none
attr source  packetSentToLower
attr title  "packets sent to lower layer, count"
scalar University.accessPoint.wlan[0].mac 	sentDownPk:sum(packetBytes) 	6034395566
attr interpolationmode  none
attr source  packetSentToLower
attr title  "packets sent to lower layer, sum(packetBytes)"
scalar University.accessPoint.wlan[0].radio 	lossRate:min 	0
attr interpolationmode  backward-sample-hold
attr title  "packet loss rate, min"
scalar University.accessPoint.wlan[0].radio 	lossRate:max 	0.36
attr interpolationmode  backward-sample-hold
attr title  "packet loss rate, max"
scalar University.accessPoint.wlan[0].radio 	lossRate:timeavg 	0.0023499926448624
attr interpolationmode  backward-sample-hold
attr title  "packet loss rate, timeavg"
statistic University.accessPoint.wlan[0].radio 	channelNo:histogram
field count 1
field mean 0
field stddev -nan
field sum 0
field sqrsum 0
field min 0
field max 0
attr interpolationmode  sample-hold
attr title  "channel no, histogram"
bin	-INF	0
bin	-0.5	0
bin	-0.46666666666667	0
bin	-0.43333333333333	0
bin	-0.4	0
bin	-0.36666666666667	0
bin	-0.33333333333333	0
bin	-0.3	0
bin	-0.26666666666667	0
bin	-0.23333333333333	0
bin	-0.2	0
bin	-0.16666666666667	0
bin	-0.13333333333333	0
bin	-0.1	0
bin	-0.066666666666667	0
bin	-0.033333333333333	0
bin	0	1
bin	0.033333333333333	0
bin	0.066666666666667	0
bin	0.1	0
bin	0.13333333333333	0
bin	0.16666666666667	0
bin	0.2	0
bin	0.23333333333333	0
bin	0.26666666666667	0
bin	0.3	0
bin	0.33333333333333	0
bin	0.36666666666667	0
bin	0.4	0
bin	0.43333333333333	0
bin	0.46666666666667	0
bin	0.5	0
scalar University.accessPoint.wlan[0].radio 	radioState:count 	31932781
attr interpolationmode  sample-hold
attr title  "radio state (enum), count"
scalar University.accessPoint.wlan[0].radio 	bitrate:min 	54000000
attr interpolationmode  sample-hold
attr title  "tx bitrate, min"
attr unit  bps
scalar University.accessPoint.wlan[0].radio 	bitrate:max 	54000000
attr interpolationmode  sample-hold
attr title  "tx bitrate, max"
attr unit  bps
scalar University.accessPoint.wlan[0].radio 	bitrate:timeavg 	54000000
attr interpolationmode  sample-hold
attr title  "tx bitrate, timeavg"
attr unit  bps
scalar University.accessPoint.eth[0].mac 	"simulated time" 	5400.0021345018
scalar University.accessPoint.eth[0].mac 	full-duplex 	1
scalar University.accessPoint.eth[0].mac 	"frames/sec sent" 	721.64119623252
scalar University.accessPoint.eth[0].mac 	"frames/sec rcvd" 	729.52211904329
scalar University.accessPoint.eth[0].mac 	"bits/sec sent" 	1162382.1434988
scalar University.accessPoint.eth[0].mac 	"bits/sec rcvd" 	8234690.7761181
scalar University.accessPoint.eth[0].mac 	"rx channel idle (%)" 	91.718619808271
scalar University.accessPoint.eth[0].mac 	"rx channel utilization (%)" 	8.2813801917292
scalar University.accessPoint.eth[0].mac 	rxPkFromHL:count 	3896864
attr interpolationmode  none
attr source  rxPkFromHL
attr title  "packet bytes from higher layer, count"
scalar University.accessPoint.eth[0].mac 	rxPkFromHL:sum(packetBytes) 	784608257
attr interpolationmode  none
attr source  rxPkFromHL
attr title  "packet bytes from higher layer, sum(packetBytes)"
scalar University.accessPoint.eth[0].mac 	rxPausePkUnits:count 	0
attr interpolationmode  none
attr title  "pause units received, count"
scalar University.accessPoint.eth[0].mac 	rxPausePkUnits:sum 	0
attr interpolationmode  none
attr title  "pause units received, sum"
scalar University.accessPoint.eth[0].mac 	txPausePkUnits:count 	0
attr interpolationmode  none
attr title  "pause units sent, count"
scalar University.accessPoint.eth[0].mac 	txPausePkUnits:sum 	0
attr interpolationmode  none
attr title  "pause units sent, sum"
scalar University.accessPoint.eth[0].mac 	txPk:count 	3896864
attr interpolationmode  none
attr source  txPk
attr title  "packets transmitted, count"
scalar University.accessPoint.eth[0].mac 	txPk:sum(packetBytes) 	784608257
attr interpolationmode  none
attr source  txPk
attr title  "packets transmitted, sum(packetBytes)"
scalar University.accessPoint.eth[0].mac 	droppedPkNotForUs:count 	0
attr interpolationmode  none
attr source  dropPkNotForUs
attr title  "packets dropped/not for us, count"
scalar University.accessPoint.eth[0].mac 	droppedPkNotForUs:sum(packetBytes) 	0
attr interpolationmode  none
attr source  dropPkNotForUs
attr title  "packets dropped/not for us, sum(packetBytes)"
scalar University.accessPoint.eth[0].mac 	passedUpPk:count 	3939421
attr interpolationmode  none
attr source  packetSentToUpper
attr title  "packets passed to higher layer, count"
scalar University.accessPoint.eth[0].mac 	passedUpPk:sum(packetBytes) 	5558418471
attr interpolationmode  none
attr source  packetSentToUpper
attr title  "packets passed to higher layer, sum(packetBytes)"
scalar University.accessPoint.eth[0].mac 	droppedPkBitError:count 	0
attr interpolationmode  none
attr source  dropPkBitError
attr title  "packets dropped/bit error, count"
scalar University.accessPoint.eth[0].mac 	droppedPkBitError:sum(packetBytes) 	0
attr interpolationmode  none
attr source  dropPkBitError
attr title  "packets dropped/bit error, sum(packetBytes)"
scalar University.accessPoint.eth[0].mac 	droppedPkIfaceDown:count 	0
attr interpolationmode  none
attr source  dropPkIfaceDown
attr title  "packets dropped/interface down, count"
scalar University.accessPoint.eth[0].mac 	droppedPkIfaceDown:sum(packetBytes) 	0
attr interpolationmode  none
attr source  dropPkIfaceDown
attr title  "packets dropped/interface down, sum(packetBytes)"
scalar University.accessPoint.eth[0].mac 	rxPkOk:count 	3939421
attr interpolationmode  none
attr source  rxPkOk
attr title  "packets received OK, count"
scalar University.accessPoint.eth[0].mac 	rxPkOk:sum(packetBytes) 	5558418471
attr interpolationmode  none
attr source  rxPkOk
attr title  "packets received OK, sum(packetBytes)"
