version 2
run _35on-3-20160818-17:44:16-6062
attr configname _35on
attr datetime 20160818-17:44:16
attr experiment _35on
attr inifile omnetpp.ini
attr iterationvars ""
attr iterationvars2 $repetition=3
attr measurement ""
attr network University
attr processid 6062
attr repetition 3
attr replication #3
attr resultdir results
attr runnumber 3
attr seedset 3

scalar University.remoteR.networkLayer.arp 	initiatedARPResolution:count 	1532
attr title  "ARP initiated resolutions, count"
scalar University.remoteR.networkLayer.arp 	sentReply:count 	83
attr title  "ARP replies sent, count"
scalar University.remoteR.networkLayer.arp 	sentReq:count 	1788
attr title  "ARP request sent, count"
scalar University.remoteR.networkLayer.arp 	failedARPResolution:count 	5
attr title  "ARP failed resolutions, count"
scalar University.remoteR.networkLayer.arp 	completedARPResolution:count 	1609
attr title  "ARP completed resolutions, count"
scalar University.remoteR.lo0.lo 	rcvdPkFromHL:count 	0
attr interpolationmode  none
attr source  packetReceivedFromUpper
attr title  "packets received from higher layer, count"
scalar University.remoteR.lo0.lo 	rcvdPkFromHL:sum(packetBytes) 	0
attr interpolationmode  none
attr source  packetReceivedFromUpper
attr title  "packets received from higher layer, sum(packetBytes)"
scalar University.remoteR.lo0.lo 	passedUpPk:count 	0
attr interpolationmode  none
attr source  packetSentToUpper
attr title  "packets passed to higher layer, count"
scalar University.remoteR.lo0.lo 	passedUpPk:sum(packetBytes) 	0
attr interpolationmode  none
attr source  packetSentToUpper
attr title  "packets passed to higher layer, sum(packetBytes)"
scalar University.remoteR.lo0.lo 	droppedPkBitError:count 	0
attr interpolationmode  none
attr source  dropPkBitError
attr title  "packets dropped/bit error, count"
scalar University.remoteR.lo0.lo 	droppedPkBitError:sum(packetBytes) 	0
attr interpolationmode  none
attr source  dropPkBitError
attr title  "packets dropped/bit error, sum(packetBytes)"
scalar University.remoteR.eth[0].mac 	"simulated time" 	5400.0000710113
scalar University.remoteR.eth[0].mac 	full-duplex 	1
scalar University.remoteR.eth[0].mac 	"frames/sec sent" 	929.06554333812
scalar University.remoteR.eth[0].mac 	"frames/sec rcvd" 	912.96702503131
scalar University.remoteR.eth[0].mac 	"bits/sec sent" 	10713527.133189
scalar University.remoteR.eth[0].mac 	"bits/sec rcvd" 	1161995.8291639
scalar University.remoteR.eth[0].mac 	"rx channel idle (%)" 	98.779574281234
scalar University.remoteR.eth[0].mac 	"rx channel utilization (%)" 	1.2204257187659
scalar University.remoteR.eth[0].mac 	rxPkFromHL:count 	5016954
attr interpolationmode  none
attr source  rxPkFromHL
attr title  "packet bytes from higher layer, count"
scalar University.remoteR.eth[0].mac 	rxPkFromHL:sum(packetBytes) 	7231630910
attr interpolationmode  none
attr source  rxPkFromHL
attr title  "packet bytes from higher layer, sum(packetBytes)"
scalar University.remoteR.eth[0].mac 	rxPausePkUnits:count 	0
attr interpolationmode  none
attr title  "pause units received, count"
scalar University.remoteR.eth[0].mac 	rxPausePkUnits:sum 	0
attr interpolationmode  none
attr title  "pause units received, sum"
scalar University.remoteR.eth[0].mac 	txPausePkUnits:count 	0
attr interpolationmode  none
attr title  "pause units sent, count"
scalar University.remoteR.eth[0].mac 	txPausePkUnits:sum 	0
attr interpolationmode  none
attr title  "pause units sent, sum"
scalar University.remoteR.eth[0].mac 	txPk:count 	5016954
attr interpolationmode  none
attr source  txPk
attr title  "packets transmitted, count"
scalar University.remoteR.eth[0].mac 	txPk:sum(packetBytes) 	7231630910
attr interpolationmode  none
attr source  txPk
attr title  "packets transmitted, sum(packetBytes)"
scalar University.remoteR.eth[0].mac 	droppedPkNotForUs:count 	0
attr interpolationmode  none
attr source  dropPkNotForUs
attr title  "packets dropped/not for us, count"
scalar University.remoteR.eth[0].mac 	droppedPkNotForUs:sum(packetBytes) 	0
attr interpolationmode  none
attr source  dropPkNotForUs
attr title  "packets dropped/not for us, sum(packetBytes)"
scalar University.remoteR.eth[0].mac 	passedUpPk:count 	4930022
attr interpolationmode  none
attr source  packetSentToUpper
attr title  "packets passed to higher layer, count"
scalar University.remoteR.eth[0].mac 	passedUpPk:sum(packetBytes) 	784347195
attr interpolationmode  none
attr source  packetSentToUpper
attr title  "packets passed to higher layer, sum(packetBytes)"
scalar University.remoteR.eth[0].mac 	droppedPkBitError:count 	0
attr interpolationmode  none
attr source  dropPkBitError
attr title  "packets dropped/bit error, count"
scalar University.remoteR.eth[0].mac 	droppedPkBitError:sum(packetBytes) 	0
attr interpolationmode  none
attr source  dropPkBitError
attr title  "packets dropped/bit error, sum(packetBytes)"
scalar University.remoteR.eth[0].mac 	droppedPkIfaceDown:count 	0
attr interpolationmode  none
attr source  dropPkIfaceDown
attr title  "packets dropped/interface down, count"
scalar University.remoteR.eth[0].mac 	droppedPkIfaceDown:sum(packetBytes) 	0
attr interpolationmode  none
attr source  dropPkIfaceDown
attr title  "packets dropped/interface down, sum(packetBytes)"
scalar University.remoteR.eth[0].mac 	rxPkOk:count 	4930022
attr interpolationmode  none
attr source  rxPkOk
attr title  "packets received OK, count"
scalar University.remoteR.eth[0].mac 	rxPkOk:sum(packetBytes) 	784347195
attr interpolationmode  none
attr source  rxPkOk
attr title  "packets received OK, sum(packetBytes)"
scalar University.remoteR.eth[0].encap 	pauseSent:count 	0
attr title  "pause sent, count"
scalar University.remoteR.eth[0].encap 	pauseSent:sum 	0
attr title  "pause sent, sum"
scalar University.remoteR.eth[0].encap 	decapPk:count 	4930022
attr interpolationmode  none
attr source  decapPk
attr title  "packets decapsulated, count"
scalar University.remoteR.eth[0].encap 	decapPk:sum(packetBytes) 	674096010
attr interpolationmode  none
attr source  decapPk
attr title  "packets decapsulated, sum(packetBytes)"
scalar University.remoteR.eth[0].encap 	encapPk:count 	5016954
attr interpolationmode  none
attr source  encapPk
attr title  "packets encapsulated, count"
scalar University.remoteR.eth[0].encap 	encapPk:sum(packetBytes) 	7139943936
attr interpolationmode  none
attr source  encapPk
attr title  "packets encapsulated, sum(packetBytes)"
scalar University.remoteR.eth[1].mac 	"simulated time" 	5400.0000710113
scalar University.remoteR.eth[1].mac 	full-duplex 	1
scalar University.remoteR.eth[1].mac 	"frames/sec sent" 	0.008518518406498
scalar University.remoteR.eth[1].mac 	"frames/sec rcvd" 	175.00833103193
scalar University.remoteR.eth[1].mac 	"bits/sec sent" 	4.361481424127
scalar University.remoteR.eth[1].mac 	"bits/sec rcvd" 	2102804.2390143
scalar University.remoteR.eth[1].mac 	"rx channel idle (%)" 	97.8859952278
scalar University.remoteR.eth[1].mac 	"rx channel utilization (%)" 	2.1140047722003
scalar University.remoteR.eth[1].mac 	rxPkFromHL:count 	46
attr interpolationmode  none
attr source  rxPkFromHL
attr title  "packet bytes from higher layer, count"
scalar University.remoteR.eth[1].mac 	rxPkFromHL:sum(packetBytes) 	2944
attr interpolationmode  none
attr source  rxPkFromHL
attr title  "packet bytes from higher layer, sum(packetBytes)"
scalar University.remoteR.eth[1].mac 	rxPausePkUnits:count 	0
attr interpolationmode  none
attr title  "pause units received, count"
scalar University.remoteR.eth[1].mac 	rxPausePkUnits:sum 	0
attr interpolationmode  none
attr title  "pause units received, sum"
scalar University.remoteR.eth[1].mac 	txPausePkUnits:count 	0
attr interpolationmode  none
attr title  "pause units sent, count"
scalar University.remoteR.eth[1].mac 	txPausePkUnits:sum 	0
attr interpolationmode  none
attr title  "pause units sent, sum"
scalar University.remoteR.eth[1].mac 	txPk:count 	46
attr interpolationmode  none
attr source  txPk
attr title  "packets transmitted, count"
scalar University.remoteR.eth[1].mac 	txPk:sum(packetBytes) 	2944
attr interpolationmode  none
attr source  txPk
attr title  "packets transmitted, sum(packetBytes)"
scalar University.remoteR.eth[1].mac 	droppedPkNotForUs:count 	0
attr interpolationmode  none
attr source  dropPkNotForUs
attr title  "packets dropped/not for us, count"
scalar University.remoteR.eth[1].mac 	droppedPkNotForUs:sum(packetBytes) 	0
attr interpolationmode  none
attr source  dropPkNotForUs
attr title  "packets dropped/not for us, sum(packetBytes)"
scalar University.remoteR.eth[1].mac 	passedUpPk:count 	945045
attr interpolationmode  none
attr source  packetSentToUpper
attr title  "packets passed to higher layer, count"
scalar University.remoteR.eth[1].mac 	passedUpPk:sum(packetBytes) 	1419392880
attr interpolationmode  none
attr source  packetSentToUpper
attr title  "packets passed to higher layer, sum(packetBytes)"
scalar University.remoteR.eth[1].mac 	droppedPkBitError:count 	0
attr interpolationmode  none
attr source  dropPkBitError
attr title  "packets dropped/bit error, count"
scalar University.remoteR.eth[1].mac 	droppedPkBitError:sum(packetBytes) 	0
attr interpolationmode  none
attr source  dropPkBitError
attr title  "packets dropped/bit error, sum(packetBytes)"
scalar University.remoteR.eth[1].mac 	droppedPkIfaceDown:count 	0
attr interpolationmode  none
attr source  dropPkIfaceDown
attr title  "packets dropped/interface down, count"
scalar University.remoteR.eth[1].mac 	droppedPkIfaceDown:sum(packetBytes) 	0
attr interpolationmode  none
attr source  dropPkIfaceDown
attr title  "packets dropped/interface down, sum(packetBytes)"
scalar University.remoteR.eth[1].mac 	rxPkOk:count 	945045
attr interpolationmode  none
attr source  rxPkOk
attr title  "packets received OK, count"
scalar University.remoteR.eth[1].mac 	rxPkOk:sum(packetBytes) 	1419392880
attr interpolationmode  none
attr source  rxPkOk
attr title  "packets received OK, sum(packetBytes)"
scalar University.remoteR.eth[1].encap 	pauseSent:count 	0
attr title  "pause sent, count"
scalar University.remoteR.eth[1].encap 	pauseSent:sum 	0
attr title  "pause sent, sum"
scalar University.remoteR.eth[1].encap 	decapPk:count 	945045
attr interpolationmode  none
attr source  decapPk
attr title  "packets decapsulated, count"
scalar University.remoteR.eth[1].encap 	decapPk:sum(packetBytes) 	1402381260
attr interpolationmode  none
attr source  decapPk
attr title  "packets decapsulated, sum(packetBytes)"
scalar University.remoteR.eth[1].encap 	encapPk:count 	46
attr interpolationmode  none
attr source  encapPk
attr title  "packets encapsulated, count"
scalar University.remoteR.eth[1].encap 	encapPk:sum(packetBytes) 	1288
attr interpolationmode  none
attr source  encapPk
attr title  "packets encapsulated, sum(packetBytes)"
statistic University.remoteR.ppp[0].queue 	queueingTime:histogram
field count 5873452
field mean 0.00097203548926065
field stddev 0.0017486134217735
field sum 5709.203788469
field sqrsum 23.508499680156
field min 0
field max 0.025140481044
attr interpolationmode  none
attr title  "queueing time, histogram"
bin	-INF	0
bin	-0.002649360001	0
bin	-0.0022961120008667	0
bin	-0.0019428640007333	0
bin	-0.0015896160006	0
bin	-0.0012363680004667	0
bin	-0.00088312000033333	0
bin	-0.0005298720002	0
bin	-0.00017662400006667	4038104
bin	0.00017662400006667	92224
bin	0.0005298720002	195698
bin	0.00088312000033333	87523
bin	0.0012363680004667	51354
bin	0.0015896160006	194600
bin	0.0019428640007333	51583
bin	0.0022961120008667	133117
bin	0.002649360001	110480
bin	0.0030026080011333	50776
bin	0.0033558560012667	193331
bin	0.0037091040014	50834
bin	0.0040623520015333	108496
bin	0.0044156000016667	134526
bin	0.0047688480018	51519
bin	0.0051220960019333	192961
bin	0.0054753440020667	49026
bin	0.0058285920022	52314
bin	0.0061818400023333	14536
bin	0.0065350880024667	5301
bin	0.0068883360026	4721
bin	0.0072415840027333	2780
bin	0.0075948320028667	1743
bin	0.007948080003	5905
scalar University.remoteR.ppp[0].queue 	dropPk:count 	0
attr interpolationmode  none
attr source  dropPkByQueue
attr title  "dropped packets, count"
scalar University.remoteR.ppp[0].queue 	dropPk:sum(packetBytes) 	0
attr interpolationmode  none
attr source  dropPkByQueue
attr title  "dropped packets, sum(packetBytes)"
scalar University.remoteR.ppp[0].queue 	queueLength:max 	28
attr interpolationmode  sample-hold
attr title  "queue length, max"
scalar University.remoteR.ppp[0].queue 	queueLength:timeavg 	1.057261042137
attr interpolationmode  sample-hold
attr title  "queue length, timeavg"
scalar University.remoteR.ppp[0].queue 	rcvdPk:count 	5873458
attr interpolationmode  none
attr title  "received packets, count"
scalar University.remoteR.ppp[0].queue 	rcvdPk:sum(packetBytes) 	2076432218
attr interpolationmode  none
attr title  "received packets, sum(packetBytes)"
scalar University.remoteR.ppp[0].ppp 	rcvdPkFromHL:count 	5873452
attr interpolationmode  none
attr source  packetReceivedFromUpper
attr title  "packets received from higher layer, count"
scalar University.remoteR.ppp[0].ppp 	rcvdPkFromHL:sum(packetBytes) 	2076424790
attr interpolationmode  none
attr source  packetReceivedFromUpper
attr title  "packets received from higher layer, sum(packetBytes)"
scalar University.remoteR.ppp[0].ppp 	passedUpPk:count 	5015141
attr interpolationmode  none
attr source  packetSentToUpper
attr title  "packets passed to higher layer, count"
scalar University.remoteR.ppp[0].ppp 	passedUpPk:sum(packetBytes) 	7139893380
attr interpolationmode  none
attr source  packetSentToUpper
attr title  "packets passed to higher layer, sum(packetBytes)"
scalar University.remoteR.ppp[0].ppp 	txPk:count 	5873452
attr interpolationmode  none
attr source  packetSentToLower
attr title  "packets transmitted, count"
scalar University.remoteR.ppp[0].ppp 	txPk:sum(packetBytes) 	2117538954
attr interpolationmode  none
attr source  packetSentToLower
attr title  "packets transmitted, sum(packetBytes)"
scalar University.remoteR.ppp[0].ppp 	droppedPkBitError:count 	0
attr interpolationmode  none
attr source  dropPkBitError
attr title  "packets dropped/bit error, count"
scalar University.remoteR.ppp[0].ppp 	droppedPkBitError:sum(packetBytes) 	0
attr interpolationmode  none
attr source  dropPkBitError
attr title  "packets dropped/bit error, sum(packetBytes)"
scalar University.remoteR.ppp[0].ppp 	droppedPkIfaceDown:count 	0
attr interpolationmode  none
attr source  dropPkIfaceDown
attr title  "packets dropped/interface down, count"
scalar University.remoteR.ppp[0].ppp 	droppedPkIfaceDown:sum(packetBytes) 	0
attr interpolationmode  none
attr source  dropPkIfaceDown
attr title  "packets dropped/interface down, sum(packetBytes)"
scalar University.remoteR.ppp[0].ppp 	rxPkOk:count 	5015141
attr interpolationmode  none
attr source  rxPkOk
attr title  "packets received OK, count"
scalar University.remoteR.ppp[0].ppp 	rxPkOk:sum(packetBytes) 	7174999367
attr interpolationmode  none
attr source  rxPkOk
attr title  "packets received OK, sum(packetBytes)"
scalar University.remoteR.ppp[0].ppp 	txState:timeavg 	0.26142447347164
attr interpolationmode  sample-hold
attr title  "tx state, timeavg"
scalar University.mainR.networkLayer.arp 	initiatedARPResolution:count 	0
attr title  "ARP initiated resolutions, count"
scalar University.mainR.networkLayer.arp 	sentReply:count 	0
attr title  "ARP replies sent, count"
scalar University.mainR.networkLayer.arp 	sentReq:count 	0
attr title  "ARP request sent, count"
scalar University.mainR.networkLayer.arp 	failedARPResolution:count 	0
attr title  "ARP failed resolutions, count"
scalar University.mainR.networkLayer.arp 	completedARPResolution:count 	0
attr title  "ARP completed resolutions, count"
scalar University.mainR.lo0.lo 	rcvdPkFromHL:count 	0
attr interpolationmode  none
attr source  packetReceivedFromUpper
attr title  "packets received from higher layer, count"
scalar University.mainR.lo0.lo 	rcvdPkFromHL:sum(packetBytes) 	0
attr interpolationmode  none
attr source  packetReceivedFromUpper
attr title  "packets received from higher layer, sum(packetBytes)"
scalar University.mainR.lo0.lo 	passedUpPk:count 	0
attr interpolationmode  none
attr source  packetSentToUpper
attr title  "packets passed to higher layer, count"
scalar University.mainR.lo0.lo 	passedUpPk:sum(packetBytes) 	0
attr interpolationmode  none
attr source  packetSentToUpper
attr title  "packets passed to higher layer, sum(packetBytes)"
scalar University.mainR.lo0.lo 	droppedPkBitError:count 	0
attr interpolationmode  none
attr source  dropPkBitError
attr title  "packets dropped/bit error, count"
scalar University.mainR.lo0.lo 	droppedPkBitError:sum(packetBytes) 	0
attr interpolationmode  none
attr source  dropPkBitError
attr title  "packets dropped/bit error, sum(packetBytes)"
statistic University.mainR.ppp[0].queue 	queueingTime:histogram
field count 5015150
field mean 0.020964253950834
field stddev 0.028028758249285
field sum 105138.87820152
field sqrsum 6144.1158131239
field min 0
field max 0.10046666659
attr interpolationmode  none
attr title  "queueing time, histogram"
bin	-INF	0
bin	-0.0005469466665	0
bin	-0.0004740204443	0
bin	-0.0004010942221	0
bin	-0.0003281679999	0
bin	-0.0002552417777	0
bin	-0.0001823155555	0
bin	-0.0001093893333	0
bin	-3.64631111e-05	439076
bin	3.64631111e-05	24739
bin	0.0001093893333	15858
bin	0.0001823155555	10508
bin	0.0002552417777	12497
bin	0.0003281679999	11197
bin	0.0004010942221	10810
bin	0.0004740204443	13063
bin	0.0005469466665	28525
bin	0.0006198728887	18321
bin	0.0006927991109	11165
bin	0.0007657253331	10049
bin	0.0008386515553	115478
bin	0.0009115777775	31580
bin	0.0009845039997	30616
bin	0.0010574302219	18978
bin	0.0011303564441	16412
bin	0.0012032826663	15319
bin	0.0012762088885	13605
bin	0.0013491351107	13289
bin	0.0014220613329	16216
bin	0.0014949875551	16524
bin	0.0015679137773	16923
bin	0.0016408399995	4104402
scalar University.mainR.ppp[0].queue 	dropPk:count 	132411
attr interpolationmode  none
attr source  dropPkByQueue
attr title  "dropped packets, count"
scalar University.mainR.ppp[0].queue 	dropPk:sum(packetBytes) 	196883781
attr interpolationmode  none
attr source  dropPkByQueue
attr title  "dropped packets, sum(packetBytes)"
scalar University.mainR.ppp[0].queue 	queueLength:max 	100
attr interpolationmode  sample-hold
attr title  "queue length, max"
scalar University.mainR.ppp[0].queue 	queueLength:timeavg 	19.470164719131
attr interpolationmode  sample-hold
attr title  "queue length, timeavg"
scalar University.mainR.ppp[0].queue 	rcvdPk:count 	5147565
attr interpolationmode  none
attr title  "received packets, count"
scalar University.mainR.ppp[0].queue 	rcvdPk:sum(packetBytes) 	7336796589
attr interpolationmode  none
attr title  "received packets, sum(packetBytes)"
scalar University.mainR.ppp[0].ppp 	rcvdPkFromHL:count 	5015150
attr interpolationmode  none
attr source  packetReceivedFromUpper
attr title  "packets received from higher layer, count"
scalar University.mainR.ppp[0].ppp 	rcvdPkFromHL:sum(packetBytes) 	7139906880
attr interpolationmode  none
attr source  packetReceivedFromUpper
attr title  "packets received from higher layer, sum(packetBytes)"
scalar University.mainR.ppp[0].ppp 	passedUpPk:count 	5873442
attr interpolationmode  none
attr source  packetSentToUpper
attr title  "packets passed to higher layer, count"
scalar University.mainR.ppp[0].ppp 	passedUpPk:sum(packetBytes) 	2076421470
attr interpolationmode  none
attr source  packetSentToUpper
attr title  "packets passed to higher layer, sum(packetBytes)"
scalar University.mainR.ppp[0].ppp 	txPk:count 	5015150
attr interpolationmode  none
attr source  packetSentToLower
attr title  "packets transmitted, count"
scalar University.mainR.ppp[0].ppp 	txPk:sum(packetBytes) 	7175012930
attr interpolationmode  none
attr source  packetSentToLower
attr title  "packets transmitted, sum(packetBytes)"
scalar University.mainR.ppp[0].ppp 	droppedPkBitError:count 	0
attr interpolationmode  none
attr source  dropPkBitError
attr title  "packets dropped/bit error, count"
scalar University.mainR.ppp[0].ppp 	droppedPkBitError:sum(packetBytes) 	0
attr interpolationmode  none
attr source  dropPkBitError
attr title  "packets dropped/bit error, sum(packetBytes)"
scalar University.mainR.ppp[0].ppp 	droppedPkIfaceDown:count 	0
attr interpolationmode  none
attr source  dropPkIfaceDown
attr title  "packets dropped/interface down, count"
scalar University.mainR.ppp[0].ppp 	droppedPkIfaceDown:sum(packetBytes) 	0
attr interpolationmode  none
attr source  dropPkIfaceDown
attr title  "packets dropped/interface down, sum(packetBytes)"
scalar University.mainR.ppp[0].ppp 	rxPkOk:count 	5873442
attr interpolationmode  none
attr source  rxPkOk
attr title  "packets received OK, count"
scalar University.mainR.ppp[0].ppp 	rxPkOk:sum(packetBytes) 	2117535564
attr interpolationmode  none
attr source  rxPkOk
attr title  "packets received OK, sum(packetBytes)"
scalar University.mainR.ppp[0].ppp 	txState:timeavg 	0.88580397112996
attr interpolationmode  sample-hold
attr title  "tx state, timeavg"
statistic University.mainR.ppp[1].queue 	queueingTime:histogram
field count 134994
field mean 0
field stddev 0
field sum 0
field sqrsum 0
field min 0
field max 0
attr interpolationmode  none
attr title  "queueing time, histogram"
bin	-INF	0
bin	-0.5	0
bin	-0.46666666666667	0
bin	-0.43333333333333	0
bin	-0.4	0
bin	-0.36666666666667	0
bin	-0.33333333333333	0
bin	-0.3	0
bin	-0.26666666666667	0
bin	-0.23333333333333	0
bin	-0.2	0
bin	-0.16666666666667	0
bin	-0.13333333333333	0
bin	-0.1	0
bin	-0.066666666666667	0
bin	-0.033333333333333	0
bin	0	134994
bin	0.033333333333333	0
bin	0.066666666666667	0
bin	0.1	0
bin	0.13333333333333	0
bin	0.16666666666667	0
bin	0.2	0
bin	0.23333333333333	0
bin	0.26666666666667	0
bin	0.3	0
bin	0.33333333333333	0
bin	0.36666666666667	0
bin	0.4	0
bin	0.43333333333333	0
bin	0.46666666666667	0
bin	0.5	0
scalar University.mainR.ppp[1].queue 	dropPk:count 	0
attr interpolationmode  none
attr source  dropPkByQueue
attr title  "dropped packets, count"
scalar University.mainR.ppp[1].queue 	dropPk:sum(packetBytes) 	0
attr interpolationmode  none
attr source  dropPkByQueue
attr title  "dropped packets, sum(packetBytes)"
scalar University.mainR.ppp[1].queue 	queueLength:max 	0
attr interpolationmode  sample-hold
attr title  "queue length, max"
scalar University.mainR.ppp[1].queue 	queueLength:timeavg 	0
attr interpolationmode  sample-hold
attr title  "queue length, timeavg"
scalar University.mainR.ppp[1].queue 	rcvdPk:count 	134994
attr interpolationmode  none
attr title  "received packets, count"
scalar University.mainR.ppp[1].queue 	rcvdPk:sum(packetBytes) 	192771432
attr interpolationmode  none
attr title  "received packets, sum(packetBytes)"
scalar University.mainR.ppp[1].ppp 	rcvdPkFromHL:count 	134994
attr interpolationmode  none
attr source  packetReceivedFromUpper
attr title  "packets received from higher layer, count"
scalar University.mainR.ppp[1].ppp 	rcvdPkFromHL:sum(packetBytes) 	192771432
attr interpolationmode  none
attr source  packetReceivedFromUpper
attr title  "packets received from higher layer, sum(packetBytes)"
scalar University.mainR.ppp[1].ppp 	passedUpPk:count 	135000
attr interpolationmode  none
attr source  packetSentToUpper
attr title  "packets passed to higher layer, count"
scalar University.mainR.ppp[1].ppp 	passedUpPk:sum(packetBytes) 	192780000
attr interpolationmode  none
attr source  packetSentToUpper
attr title  "packets passed to higher layer, sum(packetBytes)"
scalar University.mainR.ppp[1].ppp 	txPk:count 	134994
attr interpolationmode  none
attr source  packetSentToLower
attr title  "packets transmitted, count"
scalar University.mainR.ppp[1].ppp 	txPk:sum(packetBytes) 	193716390
attr interpolationmode  none
attr source  packetSentToLower
attr title  "packets transmitted, sum(packetBytes)"
scalar University.mainR.ppp[1].ppp 	droppedPkBitError:count 	0
attr interpolationmode  none
attr source  dropPkBitError
attr title  "packets dropped/bit error, count"
scalar University.mainR.ppp[1].ppp 	droppedPkBitError:sum(packetBytes) 	0
attr interpolationmode  none
attr source  dropPkBitError
attr title  "packets dropped/bit error, sum(packetBytes)"
scalar University.mainR.ppp[1].ppp 	droppedPkIfaceDown:count 	0
attr interpolationmode  none
attr source  dropPkIfaceDown
attr title  "packets dropped/interface down, count"
scalar University.mainR.ppp[1].ppp 	droppedPkIfaceDown:sum(packetBytes) 	0
attr interpolationmode  none
attr source  dropPkIfaceDown
attr title  "packets dropped/interface down, sum(packetBytes)"
scalar University.mainR.ppp[1].ppp 	rxPkOk:count 	135000
attr interpolationmode  none
attr source  rxPkOk
attr title  "packets received OK, count"
scalar University.mainR.ppp[1].ppp 	rxPkOk:sum(packetBytes) 	193725000
attr interpolationmode  none
attr source  rxPkOk
attr title  "packets received OK, sum(packetBytes)"
scalar University.mainR.ppp[1].ppp 	txState:timeavg 	0
attr interpolationmode  sample-hold
attr title  "tx state, timeavg"
statistic University.mainR.ppp[2].queue 	queueingTime:histogram
field count 4793455
field mean 1.7602863261906e-06
field stddev 1.2045731164404e-05
field sum 8.4378532917097
field sqrsum 0.00071038148410146
field min 0
field max 8.9226667e-05
attr interpolationmode  none
attr title  "queueing time, histogram"
bin	-INF	0
bin	-4.46133335e-05	0
bin	-3.8664889033333e-05	0
bin	-3.2716444566667e-05	0
bin	-2.67680001e-05	0
bin	-2.0819555633333e-05	0
bin	-1.4871111166667e-05	0
bin	-8.9226667e-06	0
bin	-2.9742222333333e-06	4685211
bin	2.9742222333333e-06	4489
bin	8.9226667e-06	98
bin	1.4871111166667e-05	126
bin	2.0819555633333e-05	89
bin	2.67680001e-05	203
bin	3.2716444566667e-05	7126
bin	3.8664889033333e-05	64
bin	4.46133335e-05	46
bin	5.0561777966667e-05	136
bin	5.6510222433333e-05	14817
bin	6.24586669e-05	27
bin	6.8407111366667e-05	19
bin	7.4355555833333e-05	17
bin	8.03040003e-05	349
bin	8.6252444766667e-05	80638
bin	9.2200889233333e-05	0
bin	9.81493337e-05	0
bin	0.00010409777816667	0
bin	0.00011004622263333	0
bin	0.0001159946671	0
bin	0.00012194311156667	0
bin	0.00012789155603333	0
bin	0.0001338400005	0
scalar University.mainR.ppp[2].queue 	dropPk:count 	0
attr interpolationmode  none
attr source  dropPkByQueue
attr title  "dropped packets, count"
scalar University.mainR.ppp[2].queue 	dropPk:sum(packetBytes) 	0
attr interpolationmode  none
attr source  dropPkByQueue
attr title  "dropped packets, sum(packetBytes)"
scalar University.mainR.ppp[2].queue 	queueLength:max 	3
attr interpolationmode  sample-hold
attr title  "queue length, max"
scalar University.mainR.ppp[2].queue 	queueLength:timeavg 	0.0015625654038437
attr interpolationmode  sample-hold
attr title  "queue length, timeavg"
scalar University.mainR.ppp[2].queue 	rcvdPk:count 	4793455
attr interpolationmode  none
attr title  "received packets, count"
scalar University.mainR.ppp[2].queue 	rcvdPk:sum(packetBytes) 	481280426
attr interpolationmode  none
attr title  "received packets, sum(packetBytes)"
scalar University.mainR.ppp[2].ppp 	rcvdPkFromHL:count 	4793455
attr interpolationmode  none
attr source  packetReceivedFromUpper
attr title  "packets received from higher layer, count"
scalar University.mainR.ppp[2].ppp 	rcvdPkFromHL:sum(packetBytes) 	481280426
attr interpolationmode  none
attr source  packetReceivedFromUpper
attr title  "packets received from higher layer, sum(packetBytes)"
scalar University.mainR.ppp[2].ppp 	passedUpPk:count 	5012564
attr interpolationmode  none
attr source  packetSentToUpper
attr title  "packets passed to higher layer, count"
scalar University.mainR.ppp[2].ppp 	passedUpPk:sum(packetBytes) 	7144016561
attr interpolationmode  none
attr source  packetSentToUpper
attr title  "packets passed to higher layer, sum(packetBytes)"
scalar University.mainR.ppp[2].ppp 	txPk:count 	4793455
attr interpolationmode  none
attr source  packetSentToLower
attr title  "packets transmitted, count"
scalar University.mainR.ppp[2].ppp 	txPk:sum(packetBytes) 	514834611
attr interpolationmode  none
attr source  packetSentToLower
attr title  "packets transmitted, sum(packetBytes)"
scalar University.mainR.ppp[2].ppp 	droppedPkBitError:count 	0
attr interpolationmode  none
attr source  dropPkBitError
attr title  "packets dropped/bit error, count"
scalar University.mainR.ppp[2].ppp 	droppedPkBitError:sum(packetBytes) 	0
attr interpolationmode  none
attr source  dropPkBitError
attr title  "packets dropped/bit error, sum(packetBytes)"
scalar University.mainR.ppp[2].ppp 	droppedPkIfaceDown:count 	0
attr interpolationmode  none
attr source  dropPkIfaceDown
attr title  "packets dropped/interface down, count"
scalar University.mainR.ppp[2].ppp 	droppedPkIfaceDown:sum(packetBytes) 	0
attr interpolationmode  none
attr source  dropPkIfaceDown
attr title  "packets dropped/interface down, sum(packetBytes)"
scalar University.mainR.ppp[2].ppp 	rxPkOk:count 	5012564
attr interpolationmode  none
attr source  rxPkOk
attr title  "packets received OK, count"
scalar University.mainR.ppp[2].ppp 	rxPkOk:sum(packetBytes) 	7179104509
attr interpolationmode  none
attr source  rxPkOk
attr title  "packets received OK, sum(packetBytes)"
scalar University.mainR.ppp[2].ppp 	txState:timeavg 	0.0076271793198394
attr interpolationmode  sample-hold
attr title  "tx state, timeavg"
statistic University.mainR.ppp[3].queue 	queueingTime:histogram
field count 944993
field mean 0
field stddev 0
field sum 0
field sqrsum 0
field min 0
field max 0
attr interpolationmode  none
attr title  "queueing time, histogram"
bin	-INF	0
bin	-0.5	0
bin	-0.46666666666667	0
bin	-0.43333333333333	0
bin	-0.4	0
bin	-0.36666666666667	0
bin	-0.33333333333333	0
bin	-0.3	0
bin	-0.26666666666667	0
bin	-0.23333333333333	0
bin	-0.2	0
bin	-0.16666666666667	0
bin	-0.13333333333333	0
bin	-0.1	0
bin	-0.066666666666667	0
bin	-0.033333333333333	0
bin	0	944993
bin	0.033333333333333	0
bin	0.066666666666667	0
bin	0.1	0
bin	0.13333333333333	0
bin	0.16666666666667	0
bin	0.2	0
bin	0.23333333333333	0
bin	0.26666666666667	0
bin	0.3	0
bin	0.33333333333333	0
bin	0.36666666666667	0
bin	0.4	0
bin	0.43333333333333	0
bin	0.46666666666667	0
bin	0.5	0
scalar University.mainR.ppp[3].queue 	dropPk:count 	0
attr interpolationmode  none
attr source  dropPkByQueue
attr title  "dropped packets, count"
scalar University.mainR.ppp[3].queue 	dropPk:sum(packetBytes) 	0
attr interpolationmode  none
attr source  dropPkByQueue
attr title  "dropped packets, sum(packetBytes)"
scalar University.mainR.ppp[3].queue 	queueLength:max 	0
attr interpolationmode  sample-hold
attr title  "queue length, max"
scalar University.mainR.ppp[3].queue 	queueLength:timeavg 	0
attr interpolationmode  sample-hold
attr title  "queue length, timeavg"
scalar University.mainR.ppp[3].queue 	rcvdPk:count 	944993
attr interpolationmode  none
attr title  "received packets, count"
scalar University.mainR.ppp[3].queue 	rcvdPk:sum(packetBytes) 	1402369612
attr interpolationmode  none
attr title  "received packets, sum(packetBytes)"
scalar University.mainR.ppp[3].ppp 	rcvdPkFromHL:count 	944993
attr interpolationmode  none
attr source  packetReceivedFromUpper
attr title  "packets received from higher layer, count"
scalar University.mainR.ppp[3].ppp 	rcvdPkFromHL:sum(packetBytes) 	1402369612
attr interpolationmode  none
attr source  packetReceivedFromUpper
attr title  "packets received from higher layer, sum(packetBytes)"
scalar University.mainR.ppp[3].ppp 	passedUpPk:count 	1
attr interpolationmode  none
attr source  packetSentToUpper
attr title  "packets passed to higher layer, count"
scalar University.mainR.ppp[3].ppp 	passedUpPk:sum(packetBytes) 	28
attr interpolationmode  none
attr source  packetSentToUpper
attr title  "packets passed to higher layer, sum(packetBytes)"
scalar University.mainR.ppp[3].ppp 	txPk:count 	944993
attr interpolationmode  none
attr source  packetSentToLower
attr title  "packets transmitted, count"
scalar University.mainR.ppp[3].ppp 	txPk:sum(packetBytes) 	1408984563
attr interpolationmode  none
attr source  packetSentToLower
attr title  "packets transmitted, sum(packetBytes)"
scalar University.mainR.ppp[3].ppp 	droppedPkBitError:count 	0
attr interpolationmode  none
attr source  dropPkBitError
attr title  "packets dropped/bit error, count"
scalar University.mainR.ppp[3].ppp 	droppedPkBitError:sum(packetBytes) 	0
attr interpolationmode  none
attr source  dropPkBitError
attr title  "packets dropped/bit error, sum(packetBytes)"
scalar University.mainR.ppp[3].ppp 	droppedPkIfaceDown:count 	0
attr interpolationmode  none
attr source  dropPkIfaceDown
attr title  "packets dropped/interface down, count"
scalar University.mainR.ppp[3].ppp 	droppedPkIfaceDown:sum(packetBytes) 	0
attr interpolationmode  none
attr source  dropPkIfaceDown
attr title  "packets dropped/interface down, sum(packetBytes)"
scalar University.mainR.ppp[3].ppp 	rxPkOk:count 	1
attr interpolationmode  none
attr source  rxPkOk
attr title  "packets received OK, count"
scalar University.mainR.ppp[3].ppp 	rxPkOk:sum(packetBytes) 	35
attr interpolationmode  none
attr source  rxPkOk
attr title  "packets received OK, sum(packetBytes)"
scalar University.mainR.ppp[3].ppp 	txState:timeavg 	0
attr interpolationmode  sample-hold
attr title  "tx state, timeavg"
scalar University.ccTVMonitoringHost.networkLayer.arp 	initiatedARPResolution:count 	0
attr title  "ARP initiated resolutions, count"
scalar University.ccTVMonitoringHost.networkLayer.arp 	sentReply:count 	0
attr title  "ARP replies sent, count"
scalar University.ccTVMonitoringHost.networkLayer.arp 	sentReq:count 	0
attr title  "ARP request sent, count"
scalar University.ccTVMonitoringHost.networkLayer.arp 	failedARPResolution:count 	0
attr title  "ARP failed resolutions, count"
scalar University.ccTVMonitoringHost.networkLayer.arp 	completedARPResolution:count 	0
attr title  "ARP completed resolutions, count"
scalar University.ccTVMonitoringHost.lo0.lo 	rcvdPkFromHL:count 	0
attr interpolationmode  none
attr source  packetReceivedFromUpper
attr title  "packets received from higher layer, count"
scalar University.ccTVMonitoringHost.lo0.lo 	rcvdPkFromHL:sum(packetBytes) 	0
attr interpolationmode  none
attr source  packetReceivedFromUpper
attr title  "packets received from higher layer, sum(packetBytes)"
scalar University.ccTVMonitoringHost.lo0.lo 	passedUpPk:count 	0
attr interpolationmode  none
attr source  packetSentToUpper
attr title  "packets passed to higher layer, count"
scalar University.ccTVMonitoringHost.lo0.lo 	passedUpPk:sum(packetBytes) 	0
attr interpolationmode  none
attr source  packetSentToUpper
attr title  "packets passed to higher layer, sum(packetBytes)"
scalar University.ccTVMonitoringHost.lo0.lo 	droppedPkBitError:count 	0
attr interpolationmode  none
attr source  dropPkBitError
attr title  "packets dropped/bit error, count"
scalar University.ccTVMonitoringHost.lo0.lo 	droppedPkBitError:sum(packetBytes) 	0
attr interpolationmode  none
attr source  dropPkBitError
attr title  "packets dropped/bit error, sum(packetBytes)"
statistic University.ccTVMonitoringHost.ppp[0].queue 	queueingTime:histogram
field count 1
field mean 0
field stddev -nan
field sum 0
field sqrsum 0
field min 0
field max 0
attr interpolationmode  none
attr title  "queueing time, histogram"
bin	-INF	0
bin	-0.5	0
bin	-0.46666666666667	0
bin	-0.43333333333333	0
bin	-0.4	0
bin	-0.36666666666667	0
bin	-0.33333333333333	0
bin	-0.3	0
bin	-0.26666666666667	0
bin	-0.23333333333333	0
bin	-0.2	0
bin	-0.16666666666667	0
bin	-0.13333333333333	0
bin	-0.1	0
bin	-0.066666666666667	0
bin	-0.033333333333333	0
bin	0	1
bin	0.033333333333333	0
bin	0.066666666666667	0
bin	0.1	0
bin	0.13333333333333	0
bin	0.16666666666667	0
bin	0.2	0
bin	0.23333333333333	0
bin	0.26666666666667	0
bin	0.3	0
bin	0.33333333333333	0
bin	0.36666666666667	0
bin	0.4	0
bin	0.43333333333333	0
bin	0.46666666666667	0
bin	0.5	0
scalar University.ccTVMonitoringHost.ppp[0].queue 	dropPk:count 	0
attr interpolationmode  none
attr source  dropPkByQueue
attr title  "dropped packets, count"
scalar University.ccTVMonitoringHost.ppp[0].queue 	dropPk:sum(packetBytes) 	0
attr interpolationmode  none
attr source  dropPkByQueue
attr title  "dropped packets, sum(packetBytes)"
scalar University.ccTVMonitoringHost.ppp[0].queue 	queueLength:max 	0
attr interpolationmode  sample-hold
attr title  "queue length, max"
scalar University.ccTVMonitoringHost.ppp[0].queue 	queueLength:timeavg 	0
attr interpolationmode  sample-hold
attr title  "queue length, timeavg"
scalar University.ccTVMonitoringHost.ppp[0].queue 	rcvdPk:count 	1
attr interpolationmode  none
attr title  "received packets, count"
scalar University.ccTVMonitoringHost.ppp[0].queue 	rcvdPk:sum(packetBytes) 	28
attr interpolationmode  none
attr title  "received packets, sum(packetBytes)"
scalar University.ccTVMonitoringHost.ppp[0].ppp 	rcvdPkFromHL:count 	1
attr interpolationmode  none
attr source  packetReceivedFromUpper
attr title  "packets received from higher layer, count"
scalar University.ccTVMonitoringHost.ppp[0].ppp 	rcvdPkFromHL:sum(packetBytes) 	28
attr interpolationmode  none
attr source  packetReceivedFromUpper
attr title  "packets received from higher layer, sum(packetBytes)"
scalar University.ccTVMonitoringHost.ppp[0].ppp 	passedUpPk:count 	944993
attr interpolationmode  none
attr source  packetSentToUpper
attr title  "packets passed to higher layer, count"
scalar University.ccTVMonitoringHost.ppp[0].ppp 	passedUpPk:sum(packetBytes) 	1402369612
attr interpolationmode  none
attr source  packetSentToUpper
attr title  "packets passed to higher layer, sum(packetBytes)"
scalar University.ccTVMonitoringHost.ppp[0].ppp 	txPk:count 	1
attr interpolationmode  none
attr source  packetSentToLower
attr title  "packets transmitted, count"
scalar University.ccTVMonitoringHost.ppp[0].ppp 	txPk:sum(packetBytes) 	35
attr interpolationmode  none
attr source  packetSentToLower
attr title  "packets transmitted, sum(packetBytes)"
scalar University.ccTVMonitoringHost.ppp[0].ppp 	droppedPkBitError:count 	0
attr interpolationmode  none
attr source  dropPkBitError
attr title  "packets dropped/bit error, count"
scalar University.ccTVMonitoringHost.ppp[0].ppp 	droppedPkBitError:sum(packetBytes) 	0
attr interpolationmode  none
attr source  dropPkBitError
attr title  "packets dropped/bit error, sum(packetBytes)"
scalar University.ccTVMonitoringHost.ppp[0].ppp 	droppedPkIfaceDown:count 	0
attr interpolationmode  none
attr source  dropPkIfaceDown
attr title  "packets dropped/interface down, count"
scalar University.ccTVMonitoringHost.ppp[0].ppp 	droppedPkIfaceDown:sum(packetBytes) 	0
attr interpolationmode  none
attr source  dropPkIfaceDown
attr title  "packets dropped/interface down, sum(packetBytes)"
scalar University.ccTVMonitoringHost.ppp[0].ppp 	rxPkOk:count 	944993
attr interpolationmode  none
attr source  rxPkOk
attr title  "packets received OK, count"
scalar University.ccTVMonitoringHost.ppp[0].ppp 	rxPkOk:sum(packetBytes) 	1408984563
attr interpolationmode  none
attr source  rxPkOk
attr title  "packets received OK, sum(packetBytes)"
scalar University.ccTVMonitoringHost.ppp[0].ppp 	txState:timeavg 	0
attr interpolationmode  sample-hold
attr title  "tx state, timeavg"
scalar University.ccTVMonitoringHost.udpApp[0] 	rcvdPk:count 	134999
attr interpolationmode  none
attr source  rcvdPk
attr title  "packets received, count"
scalar University.ccTVMonitoringHost.udpApp[0] 	rcvdPk:sum(packetBytes) 	1382389760
attr interpolationmode  none
attr source  rcvdPk
attr title  "packets received, sum(packetBytes)"
statistic University.ccTVMonitoringHost.udpApp[0] 	endToEndDelay:histogram
field count 134999
field mean 0.017161993779359
field stddev 0.00035134892352007
field sum 2316.8519982197
field sqrsum 39.778464553169
field min 0.017080129996
field max 0.034656084537
attr interpolationmode  none
attr source  messageAge(rcvdPk)
attr title  "end-to-end delay, histogram"
attr unit  s
bin	-INF	0
bin	0.010664747559	0
bin	0.011520131883933	0
bin	0.012375516208867	0
bin	0.0132309005338	0
bin	0.014086284858733	0
bin	0.014941669183667	0
bin	0.0157970535086	0
bin	0.016652437833533	128867
bin	0.017507822158467	4173
bin	0.0183632064834	1393
bin	0.019218590808333	307
bin	0.020073975133267	134
bin	0.0209293594582	53
bin	0.021784743783133	18
bin	0.022640128108067	9
bin	0.023495512433	8
bin	0.024350896757933	6
bin	0.025206281082867	10
bin	0.0260616654078	4
bin	0.026917049732733	4
bin	0.027772434057667	2
bin	0.0286278183826	2
bin	0.029483202707533	3
bin	0.030338587032467	0
bin	0.0311939713574	2
bin	0.032049355682333	3
bin	0.032904740007267	0
bin	0.0337601243322	0
bin	0.034615508657133	1
bin	0.035470892982067	0
bin	0.036326277307	0
scalar University.ccTVMonitoringHost.udp 	droppedPkBadChecksum:count 	0
attr interpolationmode  none
attr title  "packets dropped (checksum error), count"
scalar University.ccTVMonitoringHost.udp 	droppedPkWrongPort:count 	0
attr interpolationmode  none
attr title  "packets dropped (wrong port), count"
scalar University.ccTVMonitoringHost.udp 	passedUpPk:count 	134999
attr interpolationmode  none
attr title  "packets passed up, count"
scalar University.ccTVMonitoringHost.udp 	sentPk:count 	1
attr interpolationmode  none
attr source  sentPk
attr title  "packets sent, count"
scalar University.ccTVMonitoringHost.udp 	sentPk:sum(packetBytes) 	8
attr interpolationmode  none
attr source  sentPk
attr title  "packets sent, sum(packetBytes)"
scalar University.ccTVMonitoringHost.udp 	rcvdPk:count 	134999
attr interpolationmode  none
attr source  rcvdPk
attr title  "packets received, count"
scalar University.ccTVMonitoringHost.udp 	rcvdPk:sum(packetBytes) 	1383469752
attr interpolationmode  none
attr source  rcvdPk
attr title  "packets received, sum(packetBytes)"
scalar University.profLaptop.networkLayer.arp 	initiatedARPResolution:count 	0
attr title  "ARP initiated resolutions, count"
scalar University.profLaptop.networkLayer.arp 	sentReply:count 	0
attr title  "ARP replies sent, count"
scalar University.profLaptop.networkLayer.arp 	sentReq:count 	0
attr title  "ARP request sent, count"
scalar University.profLaptop.networkLayer.arp 	failedARPResolution:count 	0
attr title  "ARP failed resolutions, count"
scalar University.profLaptop.networkLayer.arp 	completedARPResolution:count 	0
attr title  "ARP completed resolutions, count"
scalar University.profLaptop.lo0.lo 	rcvdPkFromHL:count 	0
attr interpolationmode  none
attr source  packetReceivedFromUpper
attr title  "packets received from higher layer, count"
scalar University.profLaptop.lo0.lo 	rcvdPkFromHL:sum(packetBytes) 	0
attr interpolationmode  none
attr source  packetReceivedFromUpper
attr title  "packets received from higher layer, sum(packetBytes)"
scalar University.profLaptop.lo0.lo 	passedUpPk:count 	0
attr interpolationmode  none
attr source  packetSentToUpper
attr title  "packets passed to higher layer, count"
scalar University.profLaptop.lo0.lo 	passedUpPk:sum(packetBytes) 	0
attr interpolationmode  none
attr source  packetSentToUpper
attr title  "packets passed to higher layer, sum(packetBytes)"
scalar University.profLaptop.lo0.lo 	droppedPkBitError:count 	0
attr interpolationmode  none
attr source  dropPkBitError
attr title  "packets dropped/bit error, count"
scalar University.profLaptop.lo0.lo 	droppedPkBitError:sum(packetBytes) 	0
attr interpolationmode  none
attr source  dropPkBitError
attr title  "packets dropped/bit error, sum(packetBytes)"
statistic University.profLaptop.ppp[0].queue 	queueingTime:histogram
field count 135000
field mean 0
field stddev 0
field sum 0
field sqrsum 0
field min 0
field max 0
attr interpolationmode  none
attr title  "queueing time, histogram"
bin	-INF	0
bin	-0.5	0
bin	-0.46666666666667	0
bin	-0.43333333333333	0
bin	-0.4	0
bin	-0.36666666666667	0
bin	-0.33333333333333	0
bin	-0.3	0
bin	-0.26666666666667	0
bin	-0.23333333333333	0
bin	-0.2	0
bin	-0.16666666666667	0
bin	-0.13333333333333	0
bin	-0.1	0
bin	-0.066666666666667	0
bin	-0.033333333333333	0
bin	0	135000
bin	0.033333333333333	0
bin	0.066666666666667	0
bin	0.1	0
bin	0.13333333333333	0
bin	0.16666666666667	0
bin	0.2	0
bin	0.23333333333333	0
bin	0.26666666666667	0
bin	0.3	0
bin	0.33333333333333	0
bin	0.36666666666667	0
bin	0.4	0
bin	0.43333333333333	0
bin	0.46666666666667	0
bin	0.5	0
scalar University.profLaptop.ppp[0].queue 	dropPk:count 	0
attr interpolationmode  none
attr source  dropPkByQueue
attr title  "dropped packets, count"
scalar University.profLaptop.ppp[0].queue 	dropPk:sum(packetBytes) 	0
attr interpolationmode  none
attr source  dropPkByQueue
attr title  "dropped packets, sum(packetBytes)"
scalar University.profLaptop.ppp[0].queue 	queueLength:max 	0
attr interpolationmode  sample-hold
attr title  "queue length, max"
scalar University.profLaptop.ppp[0].queue 	queueLength:timeavg 	0
attr interpolationmode  sample-hold
attr title  "queue length, timeavg"
scalar University.profLaptop.ppp[0].queue 	rcvdPk:count 	135000
attr interpolationmode  none
attr title  "received packets, count"
scalar University.profLaptop.ppp[0].queue 	rcvdPk:sum(packetBytes) 	192780000
attr interpolationmode  none
attr title  "received packets, sum(packetBytes)"
scalar University.profLaptop.ppp[0].ppp 	rcvdPkFromHL:count 	135000
attr interpolationmode  none
attr source  packetReceivedFromUpper
attr title  "packets received from higher layer, count"
scalar University.profLaptop.ppp[0].ppp 	rcvdPkFromHL:sum(packetBytes) 	192780000
attr interpolationmode  none
attr source  packetReceivedFromUpper
attr title  "packets received from higher layer, sum(packetBytes)"
scalar University.profLaptop.ppp[0].ppp 	passedUpPk:count 	134994
attr interpolationmode  none
attr source  packetSentToUpper
attr title  "packets passed to higher layer, count"
scalar University.profLaptop.ppp[0].ppp 	passedUpPk:sum(packetBytes) 	192771432
attr interpolationmode  none
attr source  packetSentToUpper
attr title  "packets passed to higher layer, sum(packetBytes)"
scalar University.profLaptop.ppp[0].ppp 	txPk:count 	135000
attr interpolationmode  none
attr source  packetSentToLower
attr title  "packets transmitted, count"
scalar University.profLaptop.ppp[0].ppp 	txPk:sum(packetBytes) 	193725000
attr interpolationmode  none
attr source  packetSentToLower
attr title  "packets transmitted, sum(packetBytes)"
scalar University.profLaptop.ppp[0].ppp 	droppedPkBitError:count 	0
attr interpolationmode  none
attr source  dropPkBitError
attr title  "packets dropped/bit error, count"
scalar University.profLaptop.ppp[0].ppp 	droppedPkBitError:sum(packetBytes) 	0
attr interpolationmode  none
attr source  dropPkBitError
attr title  "packets dropped/bit error, sum(packetBytes)"
scalar University.profLaptop.ppp[0].ppp 	droppedPkIfaceDown:count 	0
attr interpolationmode  none
attr source  dropPkIfaceDown
attr title  "packets dropped/interface down, count"
scalar University.profLaptop.ppp[0].ppp 	droppedPkIfaceDown:sum(packetBytes) 	0
attr interpolationmode  none
attr source  dropPkIfaceDown
attr title  "packets dropped/interface down, sum(packetBytes)"
scalar University.profLaptop.ppp[0].ppp 	rxPkOk:count 	134994
attr interpolationmode  none
attr source  rxPkOk
attr title  "packets received OK, count"
scalar University.profLaptop.ppp[0].ppp 	rxPkOk:sum(packetBytes) 	193716390
attr interpolationmode  none
attr source  rxPkOk
attr title  "packets received OK, sum(packetBytes)"
scalar University.profLaptop.ppp[0].ppp 	txState:timeavg 	0
attr interpolationmode  sample-hold
attr title  "tx state, timeavg"
scalar University.profLaptop.udpApp[0] 	"packets sent" 	135000
scalar University.profLaptop.udpApp[0] 	"packets received" 	134994
scalar University.profLaptop.udpApp[0] 	sentPk:count 	135000
attr interpolationmode  none
attr source  sentPk
attr title  "packets sent, count"
scalar University.profLaptop.udpApp[0] 	sentPk:sum(packetBytes) 	189000000
attr interpolationmode  none
attr source  sentPk
attr title  "packets sent, sum(packetBytes)"
scalar University.profLaptop.udpApp[0] 	rcvdPk:count 	134994
attr interpolationmode  none
attr source  rcvdPk
attr title  "packets received, count"
scalar University.profLaptop.udpApp[0] 	rcvdPk:sum(packetBytes) 	188991600
attr interpolationmode  none
attr source  rcvdPk
attr title  "packets received, sum(packetBytes)"
statistic University.profLaptop.udpApp[0] 	rcvdPkLifetime:stats
field count 134994
field mean 0.018273416435334
field stddev 0.0095054778206878
field sum 2466.8015782715
field sqrsum 57.274064685278
field min 0.016345606543
field max 1.033360120147
attr interpolationmode  none
attr source  messageAge(rcvdPk)
attr title  "received packet lifetime, stats"
attr unit  s
scalar University.profLaptop.udp 	droppedPkBadChecksum:count 	0
attr interpolationmode  none
attr title  "packets dropped (checksum error), count"
scalar University.profLaptop.udp 	droppedPkWrongPort:count 	0
attr interpolationmode  none
attr title  "packets dropped (wrong port), count"
scalar University.profLaptop.udp 	passedUpPk:count 	134994
attr interpolationmode  none
attr title  "packets passed up, count"
scalar University.profLaptop.udp 	sentPk:count 	135000
attr interpolationmode  none
attr source  sentPk
attr title  "packets sent, count"
scalar University.profLaptop.udp 	sentPk:sum(packetBytes) 	190080000
attr interpolationmode  none
attr source  sentPk
attr title  "packets sent, sum(packetBytes)"
scalar University.profLaptop.udp 	rcvdPk:count 	134994
attr interpolationmode  none
attr source  rcvdPk
attr title  "packets received, count"
scalar University.profLaptop.udp 	rcvdPk:sum(packetBytes) 	190071552
attr interpolationmode  none
attr source  rcvdPk
attr title  "packets received, sum(packetBytes)"
scalar University.Server.networkLayer.arp 	initiatedARPResolution:count 	0
attr title  "ARP initiated resolutions, count"
scalar University.Server.networkLayer.arp 	sentReply:count 	0
attr title  "ARP replies sent, count"
scalar University.Server.networkLayer.arp 	sentReq:count 	0
attr title  "ARP request sent, count"
scalar University.Server.networkLayer.arp 	failedARPResolution:count 	0
attr title  "ARP failed resolutions, count"
scalar University.Server.networkLayer.arp 	completedARPResolution:count 	0
attr title  "ARP completed resolutions, count"
scalar University.Server.lo0.lo 	rcvdPkFromHL:count 	0
attr interpolationmode  none
attr source  packetReceivedFromUpper
attr title  "packets received from higher layer, count"
scalar University.Server.lo0.lo 	rcvdPkFromHL:sum(packetBytes) 	0
attr interpolationmode  none
attr source  packetReceivedFromUpper
attr title  "packets received from higher layer, sum(packetBytes)"
scalar University.Server.lo0.lo 	passedUpPk:count 	0
attr interpolationmode  none
attr source  packetSentToUpper
attr title  "packets passed to higher layer, count"
scalar University.Server.lo0.lo 	passedUpPk:sum(packetBytes) 	0
attr interpolationmode  none
attr source  packetSentToUpper
attr title  "packets passed to higher layer, sum(packetBytes)"
scalar University.Server.lo0.lo 	droppedPkBitError:count 	0
attr interpolationmode  none
attr source  dropPkBitError
attr title  "packets dropped/bit error, count"
scalar University.Server.lo0.lo 	droppedPkBitError:sum(packetBytes) 	0
attr interpolationmode  none
attr source  dropPkBitError
attr title  "packets dropped/bit error, sum(packetBytes)"
statistic University.Server.ppp[0].queue 	queueingTime:histogram
field count 5012569
field mean 0.00025677098658029
field stddev 0.0011761565570438
field sum 1287.0822874318
field sqrsum 7.2645924926313
field min 0
field max 0.012056
attr interpolationmode  none
attr title  "queueing time, histogram"
bin	-INF	0
bin	-6.028e-05	0
bin	-5.2242666666667e-05	0
bin	-4.4205333333333e-05	0
bin	-3.6168e-05	0
bin	-2.8130666666667e-05	0
bin	-2.0093333333333e-05	0
bin	-1.2056e-05	0
bin	-4.0186666666667e-06	3249525
bin	4.0186666666667e-06	1227
bin	1.2056e-05	1240
bin	2.0093333333333e-05	2517
bin	2.8130666666667e-05	1609
bin	3.6168e-05	1299
bin	4.4205333333333e-05	1396
bin	5.2242666666667e-05	7314
bin	6.028e-05	1619
bin	6.8317333333333e-05	1258
bin	7.6354666666667e-05	1413
bin	8.4392e-05	70428
bin	9.2429333333333e-05	1561
bin	0.00010046666666667	1244
bin	0.000108504	3383
bin	0.00011654133333333	892214
bin	0.00012457866666667	1332
bin	0.000132616	1461
bin	0.00014065333333333	7790
bin	0.00014869066666667	1766
bin	0.000156728	1411
bin	0.00016476533333333	1591
bin	0.00017280266666667	61523
bin	0.00018084	696448
scalar University.Server.ppp[0].queue 	dropPk:count 	527461
attr interpolationmode  none
attr source  dropPkByQueue
attr title  "dropped packets, count"
scalar University.Server.ppp[0].queue 	dropPk:sum(packetBytes) 	790405841
attr interpolationmode  none
attr source  dropPkByQueue
attr title  "dropped packets, sum(packetBytes)"
scalar University.Server.ppp[0].queue 	queueLength:max 	100
attr interpolationmode  sample-hold
attr title  "queue length, max"
scalar University.Server.ppp[0].queue 	queueLength:timeavg 	0.23834856861401
attr interpolationmode  sample-hold
attr title  "queue length, timeavg"
scalar University.Server.ppp[0].queue 	rcvdPk:count 	5540030
attr interpolationmode  none
attr title  "received packets, count"
scalar University.Server.ppp[0].queue 	rcvdPk:sum(packetBytes) 	7934428450
attr interpolationmode  none
attr title  "received packets, sum(packetBytes)"
scalar University.Server.ppp[0].ppp 	rcvdPkFromHL:count 	5012569
attr interpolationmode  none
attr source  packetReceivedFromUpper
attr title  "packets received from higher layer, count"
scalar University.Server.ppp[0].ppp 	rcvdPkFromHL:sum(packetBytes) 	7144022609
attr interpolationmode  none
attr source  packetReceivedFromUpper
attr title  "packets received from higher layer, sum(packetBytes)"
scalar University.Server.ppp[0].ppp 	passedUpPk:count 	4793434
attr interpolationmode  none
attr source  packetSentToUpper
attr title  "packets passed to higher layer, count"
scalar University.Server.ppp[0].ppp 	passedUpPk:sum(packetBytes) 	481279586
attr interpolationmode  none
attr source  packetSentToUpper
attr title  "packets passed to higher layer, sum(packetBytes)"
scalar University.Server.ppp[0].ppp 	txPk:count 	5012569
attr interpolationmode  none
attr source  packetSentToLower
attr title  "packets transmitted, count"
scalar University.Server.ppp[0].ppp 	txPk:sum(packetBytes) 	7179110592
attr interpolationmode  none
attr source  packetSentToLower
attr title  "packets transmitted, sum(packetBytes)"
scalar University.Server.ppp[0].ppp 	droppedPkBitError:count 	0
attr interpolationmode  none
attr source  dropPkBitError
attr title  "packets dropped/bit error, count"
scalar University.Server.ppp[0].ppp 	droppedPkBitError:sum(packetBytes) 	0
attr interpolationmode  none
attr source  dropPkBitError
attr title  "packets dropped/bit error, sum(packetBytes)"
scalar University.Server.ppp[0].ppp 	droppedPkIfaceDown:count 	0
attr interpolationmode  none
attr source  dropPkIfaceDown
attr title  "packets dropped/interface down, count"
scalar University.Server.ppp[0].ppp 	droppedPkIfaceDown:sum(packetBytes) 	0
attr interpolationmode  none
attr source  dropPkIfaceDown
attr title  "packets dropped/interface down, sum(packetBytes)"
scalar University.Server.ppp[0].ppp 	rxPkOk:count 	4793434
attr interpolationmode  none
attr source  rxPkOk
attr title  "packets received OK, count"
scalar University.Server.ppp[0].ppp 	rxPkOk:sum(packetBytes) 	514833624
attr interpolationmode  none
attr source  rxPkOk
attr title  "packets received OK, sum(packetBytes)"
scalar University.Server.ppp[0].ppp 	txState:timeavg 	0.10635719257045
attr interpolationmode  sample-hold
attr title  "tx state, timeavg"
scalar University.Server.tcpApp[0] 	sentPk:count 	7265
attr interpolationmode  none
attr source  sentPk
attr title  "packets sent, count"
scalar University.Server.tcpApp[0] 	sentPk:sum(packetBytes) 	6116671006
attr interpolationmode  none
attr source  sentPk
attr title  "packets sent, sum(packetBytes)"
scalar University.Server.tcpApp[0] 	rcvdPk:count 	7265
attr interpolationmode  none
attr source  rcvdPk
attr title  "packets received, count"
scalar University.Server.tcpApp[0] 	rcvdPk:sum(packetBytes) 	7265
attr interpolationmode  none
attr source  rcvdPk
attr title  "packets received, sum(packetBytes)"
statistic University.Server.tcpApp[0] 	endToEndDelay:histogram
field count 7265
field mean 0.036414712805247
field stddev 0.0021022067031654
field sum 264.55288853012
field sqrsum 9.6657190568606
field min 0.034818134469
field max 0.064163754147
attr interpolationmode  none
attr source  messageAge(rcvdPk)
attr title  "end-to-end delay, histogram"
attr unit  s
bin	-INF	0
bin	0.028318309026	0
bin	0.0291849608792	0
bin	0.0300516127324	0
bin	0.0309182645856	0
bin	0.0317849164388	0
bin	0.032651568292	0
bin	0.0335182201452	0
bin	0.0343848719984	2628
bin	0.0352515238516	1796
bin	0.0361181757048	1069
bin	0.036984827558	508
bin	0.0378514794112	304
bin	0.0387181312644	262
bin	0.0395847831176	242
bin	0.0404514349708	215
bin	0.041318086824	97
bin	0.0421847386772	59
bin	0.0430513905304	23
bin	0.0439180423836	27
bin	0.0447846942368	7
bin	0.04565134609	6
bin	0.0465179979432	5
bin	0.0473846497964	6
bin	0.0482513016496	2
bin	0.0491179535028	2
bin	0.049984605356	1
bin	0.0508512572092	0
bin	0.0517179090624	0
bin	0.0525845609156	1
bin	0.0534512127688	3
bin	0.054317864622	2
scalar University.Server.tcpApp[1] 	sentPk:count 	257
attr interpolationmode  none
attr source  sentPk
attr title  "packets sent, count"
scalar University.Server.tcpApp[1] 	sentPk:sum(packetBytes) 	257
attr interpolationmode  none
attr source  sentPk
attr title  "packets sent, sum(packetBytes)"
scalar University.Server.tcpApp[1] 	rcvdPk:count 	257
attr interpolationmode  none
attr source  rcvdPk
attr title  "packets received, count"
scalar University.Server.tcpApp[1] 	rcvdPk:sum(packetBytes) 	269484032
attr interpolationmode  none
attr source  rcvdPk
attr title  "packets received, sum(packetBytes)"
statistic University.Server.tcpApp[1] 	endToEndDelay:histogram
field count 257
field mean 19.588864035211
field stddev 22.136521888988
field sum 5034.3380570492
field sqrsum 224063.51765029
field min 3.760607483055
field max 253.02928642225
attr interpolationmode  none
attr source  messageAge(rcvdPk)
attr title  "end-to-end delay, histogram"
attr unit  s
bin	-INF	0
bin	-119.94711271994	0
bin	-103.37038386917	0
bin	-86.79365501841	0
bin	-70.216926167646	0
bin	-53.640197316881	0
bin	-37.063468466117	0
bin	-20.486739615353	0
bin	-3.9100107645891	111
bin	12.666718086175	112
bin	29.243446936939	17
bin	45.820175787703	8
bin	62.396904638467	2
bin	78.973633489232	4
bin	95.550362339996	1
bin	112.12709119076	1
bin	128.70382004152	0
bin	145.28054889229	0
bin	161.85727774305	0
bin	178.43400659382	0
bin	195.01073544458	0
bin	211.58746429534	0
bin	228.16419314611	0
bin	244.74092199687	1
bin	261.31765084764	0
bin	277.8943796984	0
bin	294.47110854917	0
bin	311.04783739993	0
bin	327.62456625069	0
bin	344.20129510146	0
bin	360.77802395222	0
bin	377.35475280299	0
scalar University.CCTV.networkLayer.arp 	initiatedARPResolution:count 	44
attr title  "ARP initiated resolutions, count"
scalar University.CCTV.networkLayer.arp 	sentReply:count 	1
attr title  "ARP replies sent, count"
scalar University.CCTV.networkLayer.arp 	sentReq:count 	44
attr title  "ARP request sent, count"
scalar University.CCTV.networkLayer.arp 	failedARPResolution:count 	0
attr title  "ARP failed resolutions, count"
scalar University.CCTV.networkLayer.arp 	completedARPResolution:count 	45
attr title  "ARP completed resolutions, count"
scalar University.CCTV.lo0.lo 	rcvdPkFromHL:count 	0
attr interpolationmode  none
attr source  packetReceivedFromUpper
attr title  "packets received from higher layer, count"
scalar University.CCTV.lo0.lo 	rcvdPkFromHL:sum(packetBytes) 	0
attr interpolationmode  none
attr source  packetReceivedFromUpper
attr title  "packets received from higher layer, sum(packetBytes)"
scalar University.CCTV.lo0.lo 	passedUpPk:count 	0
attr interpolationmode  none
attr source  packetSentToUpper
attr title  "packets passed to higher layer, count"
scalar University.CCTV.lo0.lo 	passedUpPk:sum(packetBytes) 	0
attr interpolationmode  none
attr source  packetSentToUpper
attr title  "packets passed to higher layer, sum(packetBytes)"
scalar University.CCTV.lo0.lo 	droppedPkBitError:count 	0
attr interpolationmode  none
attr source  dropPkBitError
attr title  "packets dropped/bit error, count"
scalar University.CCTV.lo0.lo 	droppedPkBitError:sum(packetBytes) 	0
attr interpolationmode  none
attr source  dropPkBitError
attr title  "packets dropped/bit error, sum(packetBytes)"
scalar University.CCTV.eth[0].mac 	"simulated time" 	5400.0000710113
scalar University.CCTV.eth[0].mac 	full-duplex 	1
scalar University.CCTV.eth[0].mac 	"frames/sec sent" 	175.00833103193
scalar University.CCTV.eth[0].mac 	"frames/sec rcvd" 	0.008518518406498
scalar University.CCTV.eth[0].mac 	"bits/sec sent" 	2102804.2390143
scalar University.CCTV.eth[0].mac 	"bits/sec rcvd" 	4.361481424127
scalar University.CCTV.eth[0].mac 	"rx channel idle (%)" 	99.999995093333
scalar University.CCTV.eth[0].mac 	"rx channel utilization (%)" 	4.9066666021428e-06
scalar University.CCTV.eth[0].mac 	rxPkFromHL:count 	945045
attr interpolationmode  none
attr source  rxPkFromHL
attr title  "packet bytes from higher layer, count"
scalar University.CCTV.eth[0].mac 	rxPkFromHL:sum(packetBytes) 	1419392880
attr interpolationmode  none
attr source  rxPkFromHL
attr title  "packet bytes from higher layer, sum(packetBytes)"
scalar University.CCTV.eth[0].mac 	rxPausePkUnits:count 	0
attr interpolationmode  none
attr title  "pause units received, count"
scalar University.CCTV.eth[0].mac 	rxPausePkUnits:sum 	0
attr interpolationmode  none
attr title  "pause units received, sum"
scalar University.CCTV.eth[0].mac 	txPausePkUnits:count 	0
attr interpolationmode  none
attr title  "pause units sent, count"
scalar University.CCTV.eth[0].mac 	txPausePkUnits:sum 	0
attr interpolationmode  none
attr title  "pause units sent, sum"
scalar University.CCTV.eth[0].mac 	txPk:count 	945045
attr interpolationmode  none
attr source  txPk
attr title  "packets transmitted, count"
scalar University.CCTV.eth[0].mac 	txPk:sum(packetBytes) 	1419392880
attr interpolationmode  none
attr source  txPk
attr title  "packets transmitted, sum(packetBytes)"
scalar University.CCTV.eth[0].mac 	droppedPkNotForUs:count 	0
attr interpolationmode  none
attr source  dropPkNotForUs
attr title  "packets dropped/not for us, count"
scalar University.CCTV.eth[0].mac 	droppedPkNotForUs:sum(packetBytes) 	0
attr interpolationmode  none
attr source  dropPkNotForUs
attr title  "packets dropped/not for us, sum(packetBytes)"
scalar University.CCTV.eth[0].mac 	passedUpPk:count 	46
attr interpolationmode  none
attr source  packetSentToUpper
attr title  "packets passed to higher layer, count"
scalar University.CCTV.eth[0].mac 	passedUpPk:sum(packetBytes) 	2944
attr interpolationmode  none
attr source  packetSentToUpper
attr title  "packets passed to higher layer, sum(packetBytes)"
scalar University.CCTV.eth[0].mac 	droppedPkBitError:count 	0
attr interpolationmode  none
attr source  dropPkBitError
attr title  "packets dropped/bit error, count"
scalar University.CCTV.eth[0].mac 	droppedPkBitError:sum(packetBytes) 	0
attr interpolationmode  none
attr source  dropPkBitError
attr title  "packets dropped/bit error, sum(packetBytes)"
scalar University.CCTV.eth[0].mac 	droppedPkIfaceDown:count 	0
attr interpolationmode  none
attr source  dropPkIfaceDown
attr title  "packets dropped/interface down, count"
scalar University.CCTV.eth[0].mac 	droppedPkIfaceDown:sum(packetBytes) 	0
attr interpolationmode  none
attr source  dropPkIfaceDown
attr title  "packets dropped/interface down, sum(packetBytes)"
scalar University.CCTV.eth[0].mac 	rxPkOk:count 	46
attr interpolationmode  none
attr source  rxPkOk
attr title  "packets received OK, count"
scalar University.CCTV.eth[0].mac 	rxPkOk:sum(packetBytes) 	2944
attr interpolationmode  none
attr source  rxPkOk
attr title  "packets received OK, sum(packetBytes)"
scalar University.CCTV.eth[0].encap 	pauseSent:count 	0
attr title  "pause sent, count"
scalar University.CCTV.eth[0].encap 	pauseSent:sum 	0
attr title  "pause sent, sum"
scalar University.CCTV.eth[0].encap 	decapPk:count 	46
attr interpolationmode  none
attr source  decapPk
attr title  "packets decapsulated, count"
scalar University.CCTV.eth[0].encap 	decapPk:sum(packetBytes) 	1288
attr interpolationmode  none
attr source  decapPk
attr title  "packets decapsulated, sum(packetBytes)"
scalar University.CCTV.eth[0].encap 	encapPk:count 	945045
attr interpolationmode  none
attr source  encapPk
attr title  "packets encapsulated, count"
scalar University.CCTV.eth[0].encap 	encapPk:sum(packetBytes) 	1402381260
attr interpolationmode  none
attr source  encapPk
attr title  "packets encapsulated, sum(packetBytes)"
scalar University.CCTV.udpApp[0] 	reqStreamBytes:count 	1
attr interpolationmode  none
attr title  "requested stream bytes, count"
scalar University.CCTV.udpApp[0] 	reqStreamBytes:sum 	1433600000
attr interpolationmode  none
attr title  "requested stream bytes, sum"
scalar University.CCTV.udpApp[0] 	sentPk:count 	135000
attr interpolationmode  none
attr source  sentPk
attr title  "packets sent, count"
scalar University.CCTV.udpApp[0] 	sentPk:sum(packetBytes) 	1382400000
attr interpolationmode  none
attr source  sentPk
attr title  "packets sent, sum(packetBytes)"
scalar University.CCTV.udp 	droppedPkBadChecksum:count 	0
attr interpolationmode  none
attr title  "packets dropped (checksum error), count"
scalar University.CCTV.udp 	droppedPkWrongPort:count 	0
attr interpolationmode  none
attr title  "packets dropped (wrong port), count"
scalar University.CCTV.udp 	passedUpPk:count 	1
attr interpolationmode  none
attr title  "packets passed up, count"
scalar University.CCTV.udp 	sentPk:count 	135000
attr interpolationmode  none
attr source  sentPk
attr title  "packets sent, count"
scalar University.CCTV.udp 	sentPk:sum(packetBytes) 	1383480000
attr interpolationmode  none
attr source  sentPk
attr title  "packets sent, sum(packetBytes)"
scalar University.CCTV.udp 	rcvdPk:count 	1
attr interpolationmode  none
attr source  rcvdPk
attr title  "packets received, count"
scalar University.CCTV.udp 	rcvdPk:sum(packetBytes) 	8
attr interpolationmode  none
attr source  rcvdPk
attr title  "packets received, sum(packetBytes)"
scalar University.whttpStudents[0].networkLayer.arp 	initiatedARPResolution:count 	1
attr title  "ARP initiated resolutions, count"
scalar University.whttpStudents[0].networkLayer.arp 	sentReply:count 	40
attr title  "ARP replies sent, count"
scalar University.whttpStudents[0].networkLayer.arp 	sentReq:count 	1
attr title  "ARP request sent, count"
scalar University.whttpStudents[0].networkLayer.arp 	failedARPResolution:count 	0
attr title  "ARP failed resolutions, count"
scalar University.whttpStudents[0].networkLayer.arp 	completedARPResolution:count 	1523
attr title  "ARP completed resolutions, count"
scalar University.whttpStudents[0].lo0.lo 	rcvdPkFromHL:count 	0
attr interpolationmode  none
attr source  packetReceivedFromUpper
attr title  "packets received from higher layer, count"
scalar University.whttpStudents[0].lo0.lo 	rcvdPkFromHL:sum(packetBytes) 	0
attr interpolationmode  none
attr source  packetReceivedFromUpper
attr title  "packets received from higher layer, sum(packetBytes)"
scalar University.whttpStudents[0].lo0.lo 	passedUpPk:count 	0
attr interpolationmode  none
attr source  packetSentToUpper
attr title  "packets passed to higher layer, count"
scalar University.whttpStudents[0].lo0.lo 	passedUpPk:sum(packetBytes) 	0
attr interpolationmode  none
attr source  packetSentToUpper
attr title  "packets passed to higher layer, sum(packetBytes)"
scalar University.whttpStudents[0].lo0.lo 	droppedPkBitError:count 	0
attr interpolationmode  none
attr source  dropPkBitError
attr title  "packets dropped/bit error, count"
scalar University.whttpStudents[0].lo0.lo 	droppedPkBitError:sum(packetBytes) 	0
attr interpolationmode  none
attr source  dropPkBitError
attr title  "packets dropped/bit error, sum(packetBytes)"
scalar University.whttpStudents[0].wlan[0].agent 	dropConfirm:count 	0
attr title  "dropped confirms, count"
scalar University.whttpStudents[0].wlan[0].agent 	acceptConfirm:count 	18
attr title  "accepted confirms, count"
scalar University.whttpStudents[0].wlan[0].agent 	sentRequest:count 	18
attr title  "sent requests, count"
scalar University.whttpStudents[0].wlan[0].mgmt 	dropPkByQueue:count 	0
attr interpolationmode  none
attr source  dropPkByQueue
attr title  "packets dropped by queue, count"
scalar University.whttpStudents[0].wlan[0].mgmt 	dropPkByQueue:sum(packetBytes) 	0
attr interpolationmode  none
attr source  dropPkByQueue
attr title  "packets dropped by queue, sum(packetBytes)"
scalar University.whttpStudents[0].wlan[0].mgmt 	dataQueueLen:max 	17
attr interpolationmode  sample-hold
attr title  "data queue length, max"
scalar University.whttpStudents[0].wlan[0].mgmt 	dataQueueLen:timeavg 	0.0026601106506229
attr interpolationmode  sample-hold
attr title  "data queue length, timeavg"
scalar University.whttpStudents[0].wlan[0].mac 	"number of received packets" 	124941
scalar University.whttpStudents[0].wlan[0].mac 	"number of collisions" 	403384
scalar University.whttpStudents[0].wlan[0].mac 	"number of internal collisions" 	0
scalar University.whttpStudents[0].wlan[0].mac 	"number of retry for AC 0" 	10058
scalar University.whttpStudents[0].wlan[0].mac 	"sent and received bits" 	82140904
scalar University.whttpStudents[0].wlan[0].mac 	"sent packet within AC 0" 	125202
scalar University.whttpStudents[0].wlan[0].mac 	"sent in TXOP " 	0
scalar University.whttpStudents[0].wlan[0].mac 	"sentWithoutRetry AC 0" 	115371
scalar University.whttpStudents[0].wlan[0].mac 	"numGivenUp AC 0" 	0
scalar University.whttpStudents[0].wlan[0].mac 	"numDropped AC 0" 	0
scalar University.whttpStudents[0].wlan[0].mac 	rcvdPkFromHL:count 	125208
attr interpolationmode  none
attr source  packetReceivedFromUpper
attr title  "packets received from higher layer, count"
scalar University.whttpStudents[0].wlan[0].mac 	rcvdPkFromHL:sum(packetBytes) 	10267613
attr interpolationmode  none
attr source  packetReceivedFromUpper
attr title  "packets received from higher layer, sum(packetBytes)"
scalar University.whttpStudents[0].wlan[0].mac 	passedUpPk:count 	178929
attr interpolationmode  none
attr source  packetSentToUpper
attr title  "packets passed to higher layer, count"
scalar University.whttpStudents[0].wlan[0].mac 	passedUpPk:sum(packetBytes) 	194987382
attr interpolationmode  none
attr source  packetSentToUpper
attr title  "packets passed to higher layer, sum(packetBytes)"
scalar University.whttpStudents[0].wlan[0].mac 	rcvdPkFromLL:count 	19830982
attr interpolationmode  none
attr source  packetReceivedFromLower
attr title  "packets received from lower layer, count"
scalar University.whttpStudents[0].wlan[0].mac 	rcvdPkFromLL:sum(packetBytes) 	8494667149
attr interpolationmode  none
attr source  packetReceivedFromLower
attr title  "packets received from lower layer, sum(packetBytes)"
scalar University.whttpStudents[0].wlan[0].mac 	sentDownPk:count 	260207
attr interpolationmode  none
attr source  packetSentToLower
attr title  "packets sent to lower layer, count"
scalar University.whttpStudents[0].wlan[0].mac 	sentDownPk:sum(packetBytes) 	12841300
attr interpolationmode  none
attr source  packetSentToLower
attr title  "packets sent to lower layer, sum(packetBytes)"
scalar University.whttpStudents[0].wlan[0].radio 	lossRate:min 	0
attr interpolationmode  backward-sample-hold
attr title  "packet loss rate, min"
scalar University.whttpStudents[0].wlan[0].radio 	lossRate:max 	0.24
attr interpolationmode  backward-sample-hold
attr title  "packet loss rate, max"
scalar University.whttpStudents[0].wlan[0].radio 	lossRate:timeavg 	0.020081000196608
attr interpolationmode  backward-sample-hold
attr title  "packet loss rate, timeavg"
statistic University.whttpStudents[0].wlan[0].radio 	channelNo:histogram
field count 1
field mean 0
field stddev -nan
field sum 0
field sqrsum 0
field min 0
field max 0
attr interpolationmode  sample-hold
attr title  "channel no, histogram"
bin	-INF	0
bin	-0.5	0
bin	-0.46666666666667	0
bin	-0.43333333333333	0
bin	-0.4	0
bin	-0.36666666666667	0
bin	-0.33333333333333	0
bin	-0.3	0
bin	-0.26666666666667	0
bin	-0.23333333333333	0
bin	-0.2	0
bin	-0.16666666666667	0
bin	-0.13333333333333	0
bin	-0.1	0
bin	-0.066666666666667	0
bin	-0.033333333333333	0
bin	0	1
bin	0.033333333333333	0
bin	0.066666666666667	0
bin	0.1	0
bin	0.13333333333333	0
bin	0.16666666666667	0
bin	0.2	0
bin	0.23333333333333	0
bin	0.26666666666667	0
bin	0.3	0
bin	0.33333333333333	0
bin	0.36666666666667	0
bin	0.4	0
bin	0.43333333333333	0
bin	0.46666666666667	0
bin	0.5	0
scalar University.whttpStudents[0].wlan[0].radio 	radioState:count 	40195474
attr interpolationmode  sample-hold
attr title  "radio state (enum), count"
scalar University.whttpStudents[0].wlan[0].radio 	bitrate:min 	54000000
attr interpolationmode  sample-hold
attr title  "tx bitrate, min"
attr unit  bps
scalar University.whttpStudents[0].wlan[0].radio 	bitrate:max 	54000000
attr interpolationmode  sample-hold
attr title  "tx bitrate, max"
attr unit  bps
scalar University.whttpStudents[0].wlan[0].radio 	bitrate:timeavg 	54000000
attr interpolationmode  sample-hold
attr title  "tx bitrate, timeavg"
attr unit  bps
scalar University.whttpStudents[0].tcpApp[0] 	numActiveSessions:max 	1
attr interpolationmode  sample-hold
attr source  sum(connect)
attr title  "number of active sessions, max"
scalar University.whttpStudents[0].tcpApp[0] 	numActiveSessions:timeavg 	0.37363467776656
attr interpolationmode  sample-hold
attr source  sum(connect)
attr title  "number of active sessions, timeavg"
scalar University.whttpStudents[0].tcpApp[0] 	numSessions:last 	199
attr source  sum(connect+1)/2
attr title  "total number of sessions, last"
scalar University.whttpStudents[0].tcpApp[0] 	sentPk:count 	199
attr interpolationmode  none
attr source  sentPk
attr title  "packets sent, count"
scalar University.whttpStudents[0].tcpApp[0] 	sentPk:sum(packetBytes) 	199
attr interpolationmode  none
attr source  sentPk
attr title  "packets sent, sum(packetBytes)"
scalar University.whttpStudents[0].tcpApp[0] 	rcvdPk:count 	199
attr interpolationmode  none
attr source  rcvdPk
attr title  "packets received, count"
scalar University.whttpStudents[0].tcpApp[0] 	rcvdPk:sum(packetBytes) 	167357323
attr interpolationmode  none
attr source  rcvdPk
attr title  "packets received, sum(packetBytes)"
statistic University.whttpStudents[0].tcpApp[0] 	endToEndDelay:histogram
field count 199
field mean 9.2401625724423
field stddev 10.873421408421
field sum 1838.792351916
field sqrsum 40400.53630744
field min 0.075206594351
field max 66.087397918251
attr interpolationmode  none
attr source  messageAge(rcvdPk)
attr title  "end-to-end delay, histogram"
attr unit  s
bin	-INF	0
bin	-32.930889067599	0
bin	-28.530076312672	0
bin	-24.129263557746	0
bin	-19.728450802819	0
bin	-15.327638047892	0
bin	-10.926825292966	0
bin	-6.526012538039	0
bin	-2.1251997831123	50
bin	2.2756129718143	65
bin	6.676425726741	27
bin	11.077238481668	21
bin	15.478051236594	10
bin	19.878863991521	7
bin	24.279676746448	6
bin	28.680489501374	5
bin	33.081302256301	0
bin	37.482115011228	4
bin	41.882927766154	1
bin	46.283740521081	1
bin	50.684553276008	1
bin	55.085366030934	0
bin	59.486178785861	0
bin	63.886991540788	1
bin	68.287804295714	0
bin	72.688617050641	0
bin	77.089429805568	0
bin	81.490242560494	0
bin	85.891055315421	0
bin	90.291868070348	0
bin	94.692680825274	0
bin	99.093493580201	0
scalar University.whttpStudents[1].networkLayer.arp 	initiatedARPResolution:count 	1
attr title  "ARP initiated resolutions, count"
scalar University.whttpStudents[1].networkLayer.arp 	sentReply:count 	42
attr title  "ARP replies sent, count"
scalar University.whttpStudents[1].networkLayer.arp 	sentReq:count 	1
attr title  "ARP request sent, count"
scalar University.whttpStudents[1].networkLayer.arp 	failedARPResolution:count 	0
attr title  "ARP failed resolutions, count"
scalar University.whttpStudents[1].networkLayer.arp 	completedARPResolution:count 	1522
attr title  "ARP completed resolutions, count"
scalar University.whttpStudents[1].lo0.lo 	rcvdPkFromHL:count 	0
attr interpolationmode  none
attr source  packetReceivedFromUpper
attr title  "packets received from higher layer, count"
scalar University.whttpStudents[1].lo0.lo 	rcvdPkFromHL:sum(packetBytes) 	0
attr interpolationmode  none
attr source  packetReceivedFromUpper
attr title  "packets received from higher layer, sum(packetBytes)"
scalar University.whttpStudents[1].lo0.lo 	passedUpPk:count 	0
attr interpolationmode  none
attr source  packetSentToUpper
attr title  "packets passed to higher layer, count"
scalar University.whttpStudents[1].lo0.lo 	passedUpPk:sum(packetBytes) 	0
attr interpolationmode  none
attr source  packetSentToUpper
attr title  "packets passed to higher layer, sum(packetBytes)"
scalar University.whttpStudents[1].lo0.lo 	droppedPkBitError:count 	0
attr interpolationmode  none
attr source  dropPkBitError
attr title  "packets dropped/bit error, count"
scalar University.whttpStudents[1].lo0.lo 	droppedPkBitError:sum(packetBytes) 	0
attr interpolationmode  none
attr source  dropPkBitError
attr title  "packets dropped/bit error, sum(packetBytes)"
scalar University.whttpStudents[1].wlan[0].agent 	dropConfirm:count 	0
attr title  "dropped confirms, count"
scalar University.whttpStudents[1].wlan[0].agent 	acceptConfirm:count 	18
attr title  "accepted confirms, count"
scalar University.whttpStudents[1].wlan[0].agent 	sentRequest:count 	18
attr title  "sent requests, count"
scalar University.whttpStudents[1].wlan[0].mgmt 	dropPkByQueue:count 	0
attr interpolationmode  none
attr source  dropPkByQueue
attr title  "packets dropped by queue, count"
scalar University.whttpStudents[1].wlan[0].mgmt 	dropPkByQueue:sum(packetBytes) 	0
attr interpolationmode  none
attr source  dropPkByQueue
attr title  "packets dropped by queue, sum(packetBytes)"
scalar University.whttpStudents[1].wlan[0].mgmt 	dataQueueLen:max 	13
attr interpolationmode  sample-hold
attr title  "data queue length, max"
scalar University.whttpStudents[1].wlan[0].mgmt 	dataQueueLen:timeavg 	0.0027606118116123
attr interpolationmode  sample-hold
attr title  "data queue length, timeavg"
scalar University.whttpStudents[1].wlan[0].mac 	"number of received packets" 	136999
scalar University.whttpStudents[1].wlan[0].mac 	"number of collisions" 	402299
scalar University.whttpStudents[1].wlan[0].mac 	"number of internal collisions" 	0
scalar University.whttpStudents[1].wlan[0].mac 	"number of retry for AC 0" 	11028
scalar University.whttpStudents[1].wlan[0].mac 	"sent and received bits" 	90081568
scalar University.whttpStudents[1].wlan[0].mac 	"sent packet within AC 0" 	137306
scalar University.whttpStudents[1].wlan[0].mac 	"sent in TXOP " 	0
scalar University.whttpStudents[1].wlan[0].mac 	"sentWithoutRetry AC 0" 	126543
scalar University.whttpStudents[1].wlan[0].mac 	"numGivenUp AC 0" 	0
scalar University.whttpStudents[1].wlan[0].mac 	"numDropped AC 0" 	0
scalar University.whttpStudents[1].wlan[0].mac 	rcvdPkFromHL:count 	137312
attr interpolationmode  none
attr source  packetReceivedFromUpper
attr title  "packets received from higher layer, count"
scalar University.whttpStudents[1].wlan[0].mac 	rcvdPkFromHL:sum(packetBytes) 	11260196
attr interpolationmode  none
attr source  packetReceivedFromUpper
attr title  "packets received from higher layer, sum(packetBytes)"
scalar University.whttpStudents[1].wlan[0].mac 	passedUpPk:count 	191064
attr interpolationmode  none
attr source  packetSentToUpper
attr title  "packets passed to higher layer, count"
scalar University.whttpStudents[1].wlan[0].mac 	passedUpPk:sum(packetBytes) 	213469575
attr interpolationmode  none
attr source  packetSentToUpper
[...]
scalar University.whostVideoConf.udpApp[0] 	sentPk:sum(packetBytes) 	189000000
attr interpolationmode  none
attr source  sentPk
attr title  "packets sent, sum(packetBytes)"
scalar University.whostVideoConf.udpApp[0] 	rcvdPk:count 	131235
attr interpolationmode  none
attr source  rcvdPk
attr title  "packets received, count"
scalar University.whostVideoConf.udpApp[0] 	rcvdPk:sum(packetBytes) 	183729000
attr interpolationmode  none
attr source  rcvdPk
attr title  "packets received, sum(packetBytes)"
statistic University.whostVideoConf.udpApp[0] 	rcvdPkLifetime:stats
field count 131235
field mean 0.068990263797823
field stddev 0.045522388992329
field sum 9053.9372695073
field sqrsum 896.58815084427
field min 0.016347046543
field max 2.086207847641
attr interpolationmode  none
attr source  messageAge(rcvdPk)
attr title  "received packet lifetime, stats"
attr unit  s
scalar University.whostVideoConf.udp 	droppedPkBadChecksum:count 	0
attr interpolationmode  none
attr title  "packets dropped (checksum error), count"
scalar University.whostVideoConf.udp 	droppedPkWrongPort:count 	0
attr interpolationmode  none
attr title  "packets dropped (wrong port), count"
scalar University.whostVideoConf.udp 	passedUpPk:count 	131235
attr interpolationmode  none
attr title  "packets passed up, count"
scalar University.whostVideoConf.udp 	sentPk:count 	135000
attr interpolationmode  none
attr source  sentPk
attr title  "packets sent, count"
scalar University.whostVideoConf.udp 	sentPk:sum(packetBytes) 	190080000
attr interpolationmode  none
attr source  sentPk
attr title  "packets sent, sum(packetBytes)"
scalar University.whostVideoConf.udp 	rcvdPk:count 	131235
attr interpolationmode  none
attr source  rcvdPk
attr title  "packets received, count"
scalar University.whostVideoConf.udp 	rcvdPk:sum(packetBytes) 	184778880
attr interpolationmode  none
attr source  rcvdPk
attr title  "packets received, sum(packetBytes)"
scalar University.whostFTP.networkLayer.arp 	initiatedARPResolution:count 	2
attr title  "ARP initiated resolutions, count"
scalar University.whostFTP.networkLayer.arp 	sentReply:count 	42
attr title  "ARP replies sent, count"
scalar University.whostFTP.networkLayer.arp 	sentReq:count 	3
attr title  "ARP request sent, count"
scalar University.whostFTP.networkLayer.arp 	failedARPResolution:count 	0
attr title  "ARP failed resolutions, count"
scalar University.whostFTP.networkLayer.arp 	completedARPResolution:count 	1527
attr title  "ARP completed resolutions, count"
scalar University.whostFTP.lo0.lo 	rcvdPkFromHL:count 	0
attr interpolationmode  none
attr source  packetReceivedFromUpper
attr title  "packets received from higher layer, count"
scalar University.whostFTP.lo0.lo 	rcvdPkFromHL:sum(packetBytes) 	0
attr interpolationmode  none
attr source  packetReceivedFromUpper
attr title  "packets received from higher layer, sum(packetBytes)"
scalar University.whostFTP.lo0.lo 	passedUpPk:count 	0
attr interpolationmode  none
attr source  packetSentToUpper
attr title  "packets passed to higher layer, count"
scalar University.whostFTP.lo0.lo 	passedUpPk:sum(packetBytes) 	0
attr interpolationmode  none
attr source  packetSentToUpper
attr title  "packets passed to higher layer, sum(packetBytes)"
scalar University.whostFTP.lo0.lo 	droppedPkBitError:count 	0
attr interpolationmode  none
attr source  dropPkBitError
attr title  "packets dropped/bit error, count"
scalar University.whostFTP.lo0.lo 	droppedPkBitError:sum(packetBytes) 	0
attr interpolationmode  none
attr source  dropPkBitError
attr title  "packets dropped/bit error, sum(packetBytes)"
scalar University.whostFTP.wlan[0].agent 	dropConfirm:count 	0
attr title  "dropped confirms, count"
scalar University.whostFTP.wlan[0].agent 	acceptConfirm:count 	18
attr title  "accepted confirms, count"
scalar University.whostFTP.wlan[0].agent 	sentRequest:count 	18
attr title  "sent requests, count"
scalar University.whostFTP.wlan[0].mgmt 	dropPkByQueue:count 	42794
attr interpolationmode  none
attr source  dropPkByQueue
attr title  "packets dropped by queue, count"
scalar University.whostFTP.wlan[0].mgmt 	dropPkByQueue:sum(packetBytes) 	65867292
attr interpolationmode  none
attr source  dropPkByQueue
attr title  "packets dropped by queue, sum(packetBytes)"
scalar University.whostFTP.wlan[0].mgmt 	dataQueueLen:max 	50
attr interpolationmode  sample-hold
attr title  "data queue length, max"
scalar University.whostFTP.wlan[0].mgmt 	dataQueueLen:timeavg 	0.54721791193182
attr interpolationmode  sample-hold
attr title  "data queue length, timeavg"
scalar University.whostFTP.wlan[0].mac 	"number of received packets" 	165240
scalar University.whostFTP.wlan[0].mac 	"number of collisions" 	375586
scalar University.whostFTP.wlan[0].mac 	"number of internal collisions" 	0
scalar University.whostFTP.wlan[0].mac 	"number of retry for AC 0" 	37308
scalar University.whostFTP.wlan[0].mac 	"sent and received bits" 	2446865320
scalar University.whostFTP.wlan[0].mac 	"sent packet within AC 0" 	199963
scalar University.whostFTP.wlan[0].mac 	"sent in TXOP " 	0
scalar University.whostFTP.wlan[0].mac 	"sentWithoutRetry AC 0" 	170536
scalar University.whostFTP.wlan[0].mac 	"numGivenUp AC 0" 	2
scalar University.whostFTP.wlan[0].mac 	"numDropped AC 0" 	0
scalar University.whostFTP.wlan[0].mac 	rcvdPkFromHL:count 	199971
attr interpolationmode  none
attr source  packetReceivedFromUpper
attr title  "packets received from higher layer, count"
scalar University.whostFTP.wlan[0].mac 	rcvdPkFromHL:sum(packetBytes) 	305861249
attr interpolationmode  none
attr source  packetReceivedFromUpper
attr title  "packets received from higher layer, sum(packetBytes)"
scalar University.whostFTP.wlan[0].mac 	passedUpPk:count 	219471
attr interpolationmode  none
attr source  packetSentToUpper
attr title  "packets passed to higher layer, count"
scalar University.whostFTP.wlan[0].mac 	passedUpPk:sum(packetBytes) 	17765629
attr interpolationmode  none
attr source  packetSentToUpper
attr title  "packets passed to higher layer, sum(packetBytes)"
scalar University.whostFTP.wlan[0].mac 	rcvdPkFromLL:count 	19688670
attr interpolationmode  none
attr source  packetReceivedFromLower
attr title  "packets received from lower layer, count"
scalar University.whostFTP.wlan[0].mac 	rcvdPkFromLL:sum(packetBytes) 	8163437099
attr interpolationmode  none
attr source  packetReceivedFromLower
attr title  "packets received from lower layer, sum(packetBytes)"
scalar University.whostFTP.wlan[0].mac 	sentDownPk:count 	402519
attr interpolationmode  none
attr source  packetSentToLower
attr title  "packets sent to lower layer, count"
scalar University.whostFTP.wlan[0].mac 	sentDownPk:sum(packetBytes) 	365439481
attr interpolationmode  none
attr source  packetSentToLower
attr title  "packets sent to lower layer, sum(packetBytes)"
scalar University.whostFTP.wlan[0].radio 	lossRate:min 	0
attr interpolationmode  backward-sample-hold
attr title  "packet loss rate, min"
scalar University.whostFTP.wlan[0].radio 	lossRate:max 	0.22
attr interpolationmode  backward-sample-hold
attr title  "packet loss rate, max"
scalar University.whostFTP.wlan[0].radio 	lossRate:timeavg 	0.018716122368949
attr interpolationmode  backward-sample-hold
attr title  "packet loss rate, timeavg"
statistic University.whostFTP.wlan[0].radio 	channelNo:histogram
field count 1
field mean 0
field stddev -nan
field sum 0
field sqrsum 0
field min 0
field max 0
attr interpolationmode  sample-hold
attr title  "channel no, histogram"
bin	-INF	0
bin	-0.5	0
bin	-0.46666666666667	0
bin	-0.43333333333333	0
bin	-0.4	0
bin	-0.36666666666667	0
bin	-0.33333333333333	0
bin	-0.3	0
bin	-0.26666666666667	0
bin	-0.23333333333333	0
bin	-0.2	0
bin	-0.16666666666667	0
bin	-0.13333333333333	0
bin	-0.1	0
bin	-0.066666666666667	0
bin	-0.033333333333333	0
bin	0	1
bin	0.033333333333333	0
bin	0.066666666666667	0
bin	0.1	0
bin	0.13333333333333	0
bin	0.16666666666667	0
bin	0.2	0
bin	0.23333333333333	0
bin	0.26666666666667	0
bin	0.3	0
bin	0.33333333333333	0
bin	0.36666666666667	0
bin	0.4	0
bin	0.43333333333333	0
bin	0.46666666666667	0
bin	0.5	0
scalar University.whostFTP.wlan[0].radio 	radioState:count 	40212530
attr interpolationmode  sample-hold
attr title  "radio state (enum), count"
scalar University.whostFTP.wlan[0].radio 	bitrate:min 	54000000
attr interpolationmode  sample-hold
attr title  "tx bitrate, min"
attr unit  bps
scalar University.whostFTP.wlan[0].radio 	bitrate:max 	54000000
attr interpolationmode  sample-hold
attr title  "tx bitrate, max"
attr unit  bps
scalar University.whostFTP.wlan[0].radio 	bitrate:timeavg 	54000000
attr interpolationmode  sample-hold
attr title  "tx bitrate, timeavg"
attr unit  bps
scalar University.whostFTP.tcpApp[0] 	numActiveSessions:max 	1
attr interpolationmode  sample-hold
attr source  sum(connect)
attr title  "number of active sessions, max"
scalar University.whostFTP.tcpApp[0] 	numActiveSessions:timeavg 	0.98450212798539
attr interpolationmode  sample-hold
attr source  sum(connect)
attr title  "number of active sessions, timeavg"
scalar University.whostFTP.tcpApp[0] 	numSessions:last 	258
attr source  sum(connect+1)/2
attr title  "total number of sessions, last"
scalar University.whostFTP.tcpApp[0] 	sentPk:count 	258
attr interpolationmode  none
attr source  sentPk
attr title  "packets sent, count"
scalar University.whostFTP.tcpApp[0] 	sentPk:sum(packetBytes) 	270532608
attr interpolationmode  none
attr source  sentPk
attr title  "packets sent, sum(packetBytes)"
scalar University.whostFTP.tcpApp[0] 	rcvdPk:count 	257
attr interpolationmode  none
attr source  rcvdPk
attr title  "packets received, count"
scalar University.whostFTP.tcpApp[0] 	rcvdPk:sum(packetBytes) 	257
attr interpolationmode  none
attr source  rcvdPk
attr title  "packets received, sum(packetBytes)"
statistic University.whostFTP.tcpApp[0] 	endToEndDelay:histogram
field count 257
field mean 20.366164894516
field stddev 22.322664612946
field sum 5234.1043778906
field sqrsum 234163.77982328
field min 3.773320941214
field max 253.04232936154
attr interpolationmode  none
attr source  messageAge(rcvdPk)
attr title  "end-to-end delay, histogram"
attr unit  s
bin	-INF	0
bin	-119.89664378022	0
bin	-103.32157830726	0
bin	-86.74651283429	0
bin	-70.171447361323	0
bin	-53.596381888356	0
bin	-37.021316415388	0
bin	-20.446250942421	0
bin	-3.8711854694537	108
bin	12.703880003514	110
bin	29.278945476481	20
bin	45.854010949448	10
bin	62.429076422416	2
bin	79.004141895383	4
bin	95.57920736835	1
bin	112.15427284132	1
bin	128.72933831428	0
bin	145.30440378725	0
bin	161.87946926022	0
bin	178.45453473319	0
bin	195.02960020615	0
bin	211.60466567912	0
bin	228.17973115209	0
bin	244.75479662506	1
bin	261.32986209802	0
bin	277.90492757099	0
bin	294.47999304396	0
bin	311.05505851693	0
bin	327.63012398989	0
bin	344.20518946286	0
bin	360.78025493583	0
bin	377.3553204088	0
scalar University.accessPoint.relayUnit 	"number of received BPDUs from STP module" 	0
scalar University.accessPoint.relayUnit 	"number of received frames from network (including BPDUs)" 	9946976
scalar University.accessPoint.relayUnit 	"number of dropped frames (including BPDUs)" 	0
scalar University.accessPoint.relayUnit 	"number of delivered BPDUs to the STP module" 	0
scalar University.accessPoint.relayUnit 	"number of dispatched BPDU frames to the network" 	0
scalar University.accessPoint.relayUnit 	"number of dispatched non-BDPU frames to the network" 	9946976
scalar University.accessPoint.wlan[0].mgmt 	dropPkByQueue:count 	134682
attr interpolationmode  none
attr source  dropPkByQueue
attr title  "packets dropped by queue, count"
scalar University.accessPoint.wlan[0].mgmt 	dropPkByQueue:sum(packetBytes) 	144160979
attr interpolationmode  none
attr source  dropPkByQueue
attr title  "packets dropped by queue, sum(packetBytes)"
scalar University.accessPoint.wlan[0].mgmt 	dataQueueLen:max 	50
attr interpolationmode  sample-hold
attr title  "data queue length, max"
scalar University.accessPoint.wlan[0].mgmt 	dataQueueLen:timeavg 	30.918985000233
attr interpolationmode  sample-hold
attr title  "data queue length, timeavg"
scalar University.accessPoint.wlan[0].mac 	"number of received packets" 	4930574
scalar University.accessPoint.wlan[0].mac 	"number of collisions" 	26704
scalar University.accessPoint.wlan[0].mac 	"number of internal collisions" 	0
scalar University.accessPoint.wlan[0].mac 	"number of retry for AC 0" 	384932
scalar University.accessPoint.wlan[0].mac 	"sent and received bits" 	57685412136
scalar University.accessPoint.wlan[0].mac 	"sent packet within AC 0" 	4881302
scalar University.accessPoint.wlan[0].mac 	"sent in TXOP " 	0
scalar University.accessPoint.wlan[0].mac 	"sentWithoutRetry AC 0" 	4512131
scalar University.accessPoint.wlan[0].mac 	"numGivenUp AC 0" 	0
scalar University.accessPoint.wlan[0].mac 	"numDropped AC 0" 	0
scalar University.accessPoint.wlan[0].mac 	rcvdPkFromHL:count 	4936902
attr interpolationmode  none
attr source  packetReceivedFromUpper
attr title  "packets received from higher layer, count"
scalar University.accessPoint.wlan[0].mac 	rcvdPkFromHL:sum(packetBytes) 	7210679601
attr interpolationmode  none
attr source  packetReceivedFromUpper
attr title  "packets received from higher layer, sum(packetBytes)"
scalar University.accessPoint.wlan[0].mac 	passedUpPk:count 	4930652
attr interpolationmode  none
attr source  packetSentToUpper
attr title  "packets passed to higher layer, count"
scalar University.accessPoint.wlan[0].mac 	passedUpPk:sum(packetBytes) 	881180662
attr interpolationmode  none
attr source  packetSentToUpper
attr title  "packets passed to higher layer, sum(packetBytes)"
scalar University.accessPoint.wlan[0].mac 	rcvdPkFromLL:count 	9838783
attr interpolationmode  none
attr source  packetReceivedFromLower
attr title  "packets received from lower layer, count"
scalar University.accessPoint.wlan[0].mac 	rcvdPkFromLL:sum(packetBytes) 	960427727
attr interpolationmode  none
attr source  packetReceivedFromLower
attr title  "packets received from lower layer, sum(packetBytes)"
scalar University.accessPoint.wlan[0].mac 	sentDownPk:count 	10252407
attr interpolationmode  none
attr source  packetSentToLower
attr title  "packets sent to lower layer, count"
scalar University.accessPoint.wlan[0].mac 	sentDownPk:sum(packetBytes) 	7843660815
attr interpolationmode  none
attr source  packetSentToLower
attr title  "packets sent to lower layer, sum(packetBytes)"
scalar University.accessPoint.wlan[0].radio 	lossRate:min 	0
attr interpolationmode  backward-sample-hold
attr title  "packet loss rate, min"
scalar University.accessPoint.wlan[0].radio 	lossRate:max 	0.32
attr interpolationmode  backward-sample-hold
attr title  "packet loss rate, max"
scalar University.accessPoint.wlan[0].radio 	lossRate:timeavg 	0.002732837569488
attr interpolationmode  backward-sample-hold
attr title  "packet loss rate, timeavg"
statistic University.accessPoint.wlan[0].radio 	channelNo:histogram
field count 1
field mean 0
field stddev -nan
field sum 0
field sqrsum 0
field min 0
field max 0
attr interpolationmode  sample-hold
attr title  "channel no, histogram"
bin	-INF	0
bin	-0.5	0
bin	-0.46666666666667	0
bin	-0.43333333333333	0
bin	-0.4	0
bin	-0.36666666666667	0
bin	-0.33333333333333	0
bin	-0.3	0
bin	-0.26666666666667	0
bin	-0.23333333333333	0
bin	-0.2	0
bin	-0.16666666666667	0
bin	-0.13333333333333	0
bin	-0.1	0
bin	-0.066666666666667	0
bin	-0.033333333333333	0
bin	0	1
bin	0.033333333333333	0
bin	0.066666666666667	0
bin	0.1	0
bin	0.13333333333333	0
bin	0.16666666666667	0
bin	0.2	0
bin	0.23333333333333	0
bin	0.26666666666667	0
bin	0.3	0
bin	0.33333333333333	0
bin	0.36666666666667	0
bin	0.4	0
bin	0.43333333333333	0
bin	0.46666666666667	0
bin	0.5	0
scalar University.accessPoint.wlan[0].radio 	radioState:count 	40430670
attr interpolationmode  sample-hold
attr title  "radio state (enum), count"
scalar University.accessPoint.wlan[0].radio 	bitrate:min 	54000000
attr interpolationmode  sample-hold
attr title  "tx bitrate, min"
attr unit  bps
scalar University.accessPoint.wlan[0].radio 	bitrate:max 	54000000
attr interpolationmode  sample-hold
attr title  "tx bitrate, max"
attr unit  bps
scalar University.accessPoint.wlan[0].radio 	bitrate:timeavg 	54000000
attr interpolationmode  sample-hold
attr title  "tx bitrate, timeavg"
attr unit  bps
scalar University.accessPoint.eth[0].mac 	"simulated time" 	5400.0000710113
scalar University.accessPoint.eth[0].mac 	full-duplex 	1
scalar University.accessPoint.eth[0].mac 	"frames/sec sent" 	912.96702503131
scalar University.accessPoint.eth[0].mac 	"frames/sec rcvd" 	929.06554333812
scalar University.accessPoint.eth[0].mac 	"bits/sec sent" 	1161995.8291639
scalar University.accessPoint.eth[0].mac 	"bits/sec rcvd" 	10713527.133189
scalar University.accessPoint.eth[0].mac 	"rx channel idle (%)" 	89.227012672054
scalar University.accessPoint.eth[0].mac 	"rx channel utilization (%)" 	10.772987327946
scalar University.accessPoint.eth[0].mac 	rxPkFromHL:count 	4930022
attr interpolationmode  none
attr source  rxPkFromHL
attr title  "packet bytes from higher layer, count"
scalar University.accessPoint.eth[0].mac 	rxPkFromHL:sum(packetBytes) 	784347195
attr interpolationmode  none
attr source  rxPkFromHL
attr title  "packet bytes from higher layer, sum(packetBytes)"
scalar University.accessPoint.eth[0].mac 	rxPausePkUnits:count 	0
attr interpolationmode  none
attr title  "pause units received, count"
scalar University.accessPoint.eth[0].mac 	rxPausePkUnits:sum 	0
attr interpolationmode  none
attr title  "pause units received, sum"
scalar University.accessPoint.eth[0].mac 	txPausePkUnits:count 	0
attr interpolationmode  none
attr title  "pause units sent, count"
scalar University.accessPoint.eth[0].mac 	txPausePkUnits:sum 	0
attr interpolationmode  none
attr title  "pause units sent, sum"
scalar University.accessPoint.eth[0].mac 	txPk:count 	4930022
attr interpolationmode  none
attr source  txPk
attr title  "packets transmitted, count"
scalar University.accessPoint.eth[0].mac 	txPk:sum(packetBytes) 	784347195
attr interpolationmode  none
attr source  txPk
attr title  "packets transmitted, sum(packetBytes)"
scalar University.accessPoint.eth[0].mac 	droppedPkNotForUs:count 	0
attr interpolationmode  none
attr source  dropPkNotForUs
attr title  "packets dropped/not for us, count"
scalar University.accessPoint.eth[0].mac 	droppedPkNotForUs:sum(packetBytes) 	0
attr interpolationmode  none
attr source  dropPkNotForUs
attr title  "packets dropped/not for us, sum(packetBytes)"
scalar University.accessPoint.eth[0].mac 	passedUpPk:count 	5016954
attr interpolationmode  none
attr source  packetSentToUpper
attr title  "packets passed to higher layer, count"
scalar University.accessPoint.eth[0].mac 	passedUpPk:sum(packetBytes) 	7231630910
attr interpolationmode  none
attr source  packetSentToUpper
attr title  "packets passed to higher layer, sum(packetBytes)"
scalar University.accessPoint.eth[0].mac 	droppedPkBitError:count 	0
attr interpolationmode  none
attr source  dropPkBitError
attr title  "packets dropped/bit error, count"
scalar University.accessPoint.eth[0].mac 	droppedPkBitError:sum(packetBytes) 	0
attr interpolationmode  none
attr source  dropPkBitError
attr title  "packets dropped/bit error, sum(packetBytes)"
scalar University.accessPoint.eth[0].mac 	droppedPkIfaceDown:count 	0
attr interpolationmode  none
attr source  dropPkIfaceDown
attr title  "packets dropped/interface down, count"
scalar University.accessPoint.eth[0].mac 	droppedPkIfaceDown:sum(packetBytes) 	0
attr interpolationmode  none
attr source  dropPkIfaceDown
attr title  "packets dropped/interface down, sum(packetBytes)"
scalar University.accessPoint.eth[0].mac 	rxPkOk:count 	5016954
attr interpolationmode  none
attr source  rxPkOk
attr title  "packets received OK, count"
scalar University.accessPoint.eth[0].mac 	rxPkOk:sum(packetBytes) 	7231630910
attr interpolationmode  none
attr source  rxPkOk
attr title  "packets received OK, sum(packetBytes)"
