version 2
run _35on-4-20160818-20:57:24-9296
attr configname _35on
attr datetime 20160818-20:57:24
attr experiment _35on
attr inifile omnetpp.ini
attr iterationvars ""
attr iterationvars2 $repetition=4
attr measurement ""
attr network University
attr processid 9296
attr repetition 4
attr replication #4
attr resultdir results
attr runnumber 4
attr seedset 4

scalar University.remoteR.networkLayer.arp 	initiatedARPResolution:count 	1555
attr title  "ARP initiated resolutions, count"
scalar University.remoteR.networkLayer.arp 	sentReply:count 	83
attr title  "ARP replies sent, count"
scalar University.remoteR.networkLayer.arp 	sentReq:count 	1679
attr title  "ARP request sent, count"
scalar University.remoteR.networkLayer.arp 	failedARPResolution:count 	0
attr title  "ARP failed resolutions, count"
scalar University.remoteR.networkLayer.arp 	completedARPResolution:count 	1638
attr title  "ARP completed resolutions, count"
scalar University.remoteR.lo0.lo 	rcvdPkFromHL:count 	0
attr interpolationmode  none
attr source  packetReceivedFromUpper
attr title  "packets received from higher layer, count"
scalar University.remoteR.lo0.lo 	rcvdPkFromHL:sum(packetBytes) 	0
attr interpolationmode  none
attr source  packetReceivedFromUpper
attr title  "packets received from higher layer, sum(packetBytes)"
scalar University.remoteR.lo0.lo 	passedUpPk:count 	0
attr interpolationmode  none
attr source  packetSentToUpper
attr title  "packets passed to higher layer, count"
scalar University.remoteR.lo0.lo 	passedUpPk:sum(packetBytes) 	0
attr interpolationmode  none
attr source  packetSentToUpper
attr title  "packets passed to higher layer, sum(packetBytes)"
scalar University.remoteR.lo0.lo 	droppedPkBitError:count 	0
attr interpolationmode  none
attr source  dropPkBitError
attr title  "packets dropped/bit error, count"
scalar University.remoteR.lo0.lo 	droppedPkBitError:sum(packetBytes) 	0
attr interpolationmode  none
attr source  dropPkBitError
attr title  "packets dropped/bit error, sum(packetBytes)"
scalar University.remoteR.eth[0].mac 	"simulated time" 	5400.0001818542
scalar University.remoteR.eth[0].mac 	full-duplex 	1
scalar University.remoteR.eth[0].mac 	"frames/sec sent" 	745.34701193621
scalar University.remoteR.eth[0].mac 	"frames/sec rcvd" 	737.42182701792
scalar University.remoteR.eth[0].mac 	"bits/sec sent" 	8418455.2735313
scalar University.remoteR.eth[0].mac 	"bits/sec rcvd" 	1176369.0685319
scalar University.remoteR.eth[0].mac 	"rx channel idle (%)" 	98.776435934539
scalar University.remoteR.eth[0].mac 	"rx channel utilization (%)" 	1.223564065461
scalar University.remoteR.eth[0].mac 	rxPkFromHL:count 	4024874
attr interpolationmode  none
attr source  rxPkFromHL
attr title  "packet bytes from higher layer, count"
scalar University.remoteR.eth[0].mac 	rxPkFromHL:sum(packetBytes) 	5682457501
attr interpolationmode  none
attr source  rxPkFromHL
attr title  "packet bytes from higher layer, sum(packetBytes)"
scalar University.remoteR.eth[0].mac 	rxPausePkUnits:count 	0
attr interpolationmode  none
attr title  "pause units received, count"
scalar University.remoteR.eth[0].mac 	rxPausePkUnits:sum 	0
attr interpolationmode  none
attr title  "pause units received, sum"
scalar University.remoteR.eth[0].mac 	txPausePkUnits:count 	0
attr interpolationmode  none
attr title  "pause units sent, count"
scalar University.remoteR.eth[0].mac 	txPausePkUnits:sum 	0
attr interpolationmode  none
attr title  "pause units sent, sum"
scalar University.remoteR.eth[0].mac 	txPk:count 	4024874
attr interpolationmode  none
attr source  txPk
attr title  "packets transmitted, count"
scalar University.remoteR.eth[0].mac 	txPk:sum(packetBytes) 	5682457501
attr interpolationmode  none
attr source  txPk
attr title  "packets transmitted, sum(packetBytes)"
scalar University.remoteR.eth[0].mac 	droppedPkNotForUs:count 	0
attr interpolationmode  none
attr source  dropPkNotForUs
attr title  "packets dropped/not for us, count"
scalar University.remoteR.eth[0].mac 	droppedPkNotForUs:sum(packetBytes) 	0
attr interpolationmode  none
attr source  dropPkNotForUs
attr title  "packets dropped/not for us, sum(packetBytes)"
scalar University.remoteR.eth[0].mac 	passedUpPk:count 	3982078
attr interpolationmode  none
attr source  packetSentToUpper
attr title  "packets passed to higher layer, count"
scalar University.remoteR.eth[0].mac 	passedUpPk:sum(packetBytes) 	794049148
attr interpolationmode  none
attr source  packetSentToUpper
attr title  "packets passed to higher layer, sum(packetBytes)"
scalar University.remoteR.eth[0].mac 	droppedPkBitError:count 	0
attr interpolationmode  none
attr source  dropPkBitError
attr title  "packets dropped/bit error, count"
scalar University.remoteR.eth[0].mac 	droppedPkBitError:sum(packetBytes) 	0
attr interpolationmode  none
attr source  dropPkBitError
attr title  "packets dropped/bit error, sum(packetBytes)"
scalar University.remoteR.eth[0].mac 	droppedPkIfaceDown:count 	0
attr interpolationmode  none
attr source  dropPkIfaceDown
attr title  "packets dropped/interface down, count"
scalar University.remoteR.eth[0].mac 	droppedPkIfaceDown:sum(packetBytes) 	0
attr interpolationmode  none
attr source  dropPkIfaceDown
attr title  "packets dropped/interface down, sum(packetBytes)"
scalar University.remoteR.eth[0].mac 	rxPkOk:count 	3982078
attr interpolationmode  none
attr source  rxPkOk
attr title  "packets received OK, count"
scalar University.remoteR.eth[0].mac 	rxPkOk:sum(packetBytes) 	794049148
attr interpolationmode  none
attr source  rxPkOk
attr title  "packets received OK, sum(packetBytes)"
scalar University.remoteR.eth[0].encap 	pauseSent:count 	0
attr title  "pause sent, count"
scalar University.remoteR.eth[0].encap 	pauseSent:sum 	0
attr title  "pause sent, sum"
scalar University.remoteR.eth[0].encap 	decapPk:count 	3982078
attr interpolationmode  none
attr source  decapPk
attr title  "packets decapsulated, count"
scalar University.remoteR.eth[0].encap 	decapPk:sum(packetBytes) 	707703788
attr interpolationmode  none
attr source  decapPk
attr title  "packets decapsulated, sum(packetBytes)"
scalar University.remoteR.eth[0].encap 	encapPk:count 	4024874
attr interpolationmode  none
attr source  encapPk
attr title  "packets encapsulated, count"
scalar University.remoteR.eth[0].encap 	encapPk:sum(packetBytes) 	5608373478
attr interpolationmode  none
attr source  encapPk
attr title  "packets encapsulated, sum(packetBytes)"
scalar University.remoteR.eth[1].mac 	"simulated time" 	5400.0001818542
scalar University.remoteR.eth[1].mac 	full-duplex 	1
scalar University.remoteR.eth[1].mac 	"frames/sec sent" 	0.0085185182316429
scalar University.remoteR.eth[1].mac 	"frames/sec rcvd" 	175.00832743963
scalar University.remoteR.eth[1].mac 	"bits/sec sent" 	4.3614813346012
scalar University.remoteR.eth[1].mac 	"bits/sec rcvd" 	2102804.1958512
scalar University.remoteR.eth[1].mac 	"rx channel idle (%)" 	97.885995271193
scalar University.remoteR.eth[1].mac 	"rx channel utilization (%)" 	2.1140047288073
scalar University.remoteR.eth[1].mac 	rxPkFromHL:count 	46
attr interpolationmode  none
attr source  rxPkFromHL
attr title  "packet bytes from higher layer, count"
scalar University.remoteR.eth[1].mac 	rxPkFromHL:sum(packetBytes) 	2944
attr interpolationmode  none
attr source  rxPkFromHL
attr title  "packet bytes from higher layer, sum(packetBytes)"
scalar University.remoteR.eth[1].mac 	rxPausePkUnits:count 	0
attr interpolationmode  none
attr title  "pause units received, count"
scalar University.remoteR.eth[1].mac 	rxPausePkUnits:sum 	0
attr interpolationmode  none
attr title  "pause units received, sum"
scalar University.remoteR.eth[1].mac 	txPausePkUnits:count 	0
attr interpolationmode  none
attr title  "pause units sent, count"
scalar University.remoteR.eth[1].mac 	txPausePkUnits:sum 	0
attr interpolationmode  none
attr title  "pause units sent, sum"
scalar University.remoteR.eth[1].mac 	txPk:count 	46
attr interpolationmode  none
attr source  txPk
attr title  "packets transmitted, count"
scalar University.remoteR.eth[1].mac 	txPk:sum(packetBytes) 	2944
attr interpolationmode  none
attr source  txPk
attr title  "packets transmitted, sum(packetBytes)"
scalar University.remoteR.eth[1].mac 	droppedPkNotForUs:count 	0
attr interpolationmode  none
attr source  dropPkNotForUs
attr title  "packets dropped/not for us, count"
scalar University.remoteR.eth[1].mac 	droppedPkNotForUs:sum(packetBytes) 	0
attr interpolationmode  none
attr source  dropPkNotForUs
attr title  "packets dropped/not for us, sum(packetBytes)"
scalar University.remoteR.eth[1].mac 	passedUpPk:count 	945045
attr interpolationmode  none
attr source  packetSentToUpper
attr title  "packets passed to higher layer, count"
scalar University.remoteR.eth[1].mac 	passedUpPk:sum(packetBytes) 	1419392880
attr interpolationmode  none
attr source  packetSentToUpper
attr title  "packets passed to higher layer, sum(packetBytes)"
scalar University.remoteR.eth[1].mac 	droppedPkBitError:count 	0
attr interpolationmode  none
attr source  dropPkBitError
attr title  "packets dropped/bit error, count"
scalar University.remoteR.eth[1].mac 	droppedPkBitError:sum(packetBytes) 	0
attr interpolationmode  none
attr source  dropPkBitError
attr title  "packets dropped/bit error, sum(packetBytes)"
scalar University.remoteR.eth[1].mac 	droppedPkIfaceDown:count 	0
attr interpolationmode  none
attr source  dropPkIfaceDown
attr title  "packets dropped/interface down, count"
scalar University.remoteR.eth[1].mac 	droppedPkIfaceDown:sum(packetBytes) 	0
attr interpolationmode  none
attr source  dropPkIfaceDown
attr title  "packets dropped/interface down, sum(packetBytes)"
scalar University.remoteR.eth[1].mac 	rxPkOk:count 	945045
attr interpolationmode  none
attr source  rxPkOk
attr title  "packets received OK, count"
scalar University.remoteR.eth[1].mac 	rxPkOk:sum(packetBytes) 	1419392880
attr interpolationmode  none
attr source  rxPkOk
attr title  "packets received OK, sum(packetBytes)"
scalar University.remoteR.eth[1].encap 	pauseSent:count 	0
attr title  "pause sent, count"
scalar University.remoteR.eth[1].encap 	pauseSent:sum 	0
attr title  "pause sent, sum"
scalar University.remoteR.eth[1].encap 	decapPk:count 	945045
attr interpolationmode  none
attr source  decapPk
attr title  "packets decapsulated, count"
scalar University.remoteR.eth[1].encap 	decapPk:sum(packetBytes) 	1402381260
attr interpolationmode  none
attr source  decapPk
attr title  "packets decapsulated, sum(packetBytes)"
scalar University.remoteR.eth[1].encap 	encapPk:count 	46
attr interpolationmode  none
attr source  encapPk
attr title  "packets encapsulated, count"
scalar University.remoteR.eth[1].encap 	encapPk:sum(packetBytes) 	1288
attr interpolationmode  none
attr source  encapPk
attr title  "packets encapsulated, sum(packetBytes)"
statistic University.remoteR.ppp[0].queue 	queueingTime:histogram
field count 4925485
field mean 0.0011676423302409
field stddev 0.001949938046445
field sum 5751.2047829664
field sqrsum 25.443312993528
field min 0
field max 0.034330754267
attr interpolationmode  none
attr title  "queueing time, histogram"
bin	-INF	0
bin	-0.002649360001	0
bin	-0.0022961120008667	0
bin	-0.0019428640007333	0
bin	-0.0015896160006	0
bin	-0.0012363680004667	0
bin	-0.00088312000033333	0
bin	-0.0005298720002	0
bin	-0.00017662400006667	3146369
bin	0.00017662400006667	99948
bin	0.0005298720002	181872
bin	0.00088312000033333	59884
bin	0.0012363680004667	63484
bin	0.0015896160006	169728
bin	0.0019428640007333	38793
bin	0.0022961120008667	168385
bin	0.002649360001	67435
bin	0.0030026080011333	43470
bin	0.0033558560012667	195885
bin	0.0037091040014	36013
bin	0.0040623520015333	121378
bin	0.0044156000016667	147841
bin	0.0047688480018	36356
bin	0.0051220960019333	217512
bin	0.0054753440020667	33793
bin	0.0058285920022	36786
bin	0.0061818400023333	19205
bin	0.0065350880024667	8286
bin	0.0068883360026	6490
bin	0.0072415840027333	4465
bin	0.0075948320028667	3319
bin	0.007948080003	18788
scalar University.remoteR.ppp[0].queue 	dropPk:count 	0
attr interpolationmode  none
attr source  dropPkByQueue
attr title  "dropped packets, count"
scalar University.remoteR.ppp[0].queue 	dropPk:sum(packetBytes) 	0
attr interpolationmode  none
attr source  dropPkByQueue
attr title  "dropped packets, sum(packetBytes)"
scalar University.remoteR.ppp[0].queue 	queueLength:max 	38
attr interpolationmode  sample-hold
attr title  "queue length, max"
scalar University.remoteR.ppp[0].queue 	queueLength:timeavg 	1.0650378869141
attr interpolationmode  sample-hold
attr title  "queue length, timeavg"
scalar University.remoteR.ppp[0].queue 	rcvdPk:count 	4925485
attr interpolationmode  none
attr title  "received packets, count"
scalar University.remoteR.ppp[0].queue 	rcvdPk:sum(packetBytes) 	2110039184
attr interpolationmode  none
attr title  "received packets, sum(packetBytes)"
scalar University.remoteR.ppp[0].ppp 	rcvdPkFromHL:count 	4925485
attr interpolationmode  none
attr source  packetReceivedFromUpper
attr title  "packets received from higher layer, count"
scalar University.remoteR.ppp[0].ppp 	rcvdPkFromHL:sum(packetBytes) 	2110039184
attr interpolationmode  none
attr source  packetReceivedFromUpper
attr title  "packets received from higher layer, sum(packetBytes)"
scalar University.remoteR.ppp[0].ppp 	passedUpPk:count 	4023159
attr interpolationmode  none
attr source  packetSentToUpper
attr title  "packets passed to higher layer, count"
scalar University.remoteR.ppp[0].ppp 	passedUpPk:sum(packetBytes) 	5608326930
attr interpolationmode  none
attr source  packetSentToUpper
attr title  "packets passed to higher layer, sum(packetBytes)"
scalar University.remoteR.ppp[0].ppp 	txPk:count 	4925485
attr interpolationmode  none
attr source  packetSentToLower
attr title  "packets transmitted, count"
scalar University.remoteR.ppp[0].ppp 	txPk:sum(packetBytes) 	2144517579
attr interpolationmode  none
attr source  packetSentToLower
attr title  "packets transmitted, sum(packetBytes)"
scalar University.remoteR.ppp[0].ppp 	droppedPkBitError:count 	0
attr interpolationmode  none
attr source  dropPkBitError
attr title  "packets dropped/bit error, count"
scalar University.remoteR.ppp[0].ppp 	droppedPkBitError:sum(packetBytes) 	0
attr interpolationmode  none
attr source  dropPkBitError
attr title  "packets dropped/bit error, sum(packetBytes)"
scalar University.remoteR.ppp[0].ppp 	droppedPkIfaceDown:count 	0
attr interpolationmode  none
attr source  dropPkIfaceDown
attr title  "packets dropped/interface down, count"
scalar University.remoteR.ppp[0].ppp 	droppedPkIfaceDown:sum(packetBytes) 	0
attr interpolationmode  none
attr source  dropPkIfaceDown
attr title  "packets dropped/interface down, sum(packetBytes)"
scalar University.remoteR.ppp[0].ppp 	rxPkOk:count 	4023159
attr interpolationmode  none
attr source  rxPkOk
attr title  "packets received OK, count"
scalar University.remoteR.ppp[0].ppp 	rxPkOk:sum(packetBytes) 	5636489043
attr interpolationmode  none
attr source  rxPkOk
attr title  "packets received OK, sum(packetBytes)"
scalar University.remoteR.ppp[0].ppp 	txState:timeavg 	0.26475524738962
attr interpolationmode  sample-hold
attr title  "tx state, timeavg"
scalar University.mainR.networkLayer.arp 	initiatedARPResolution:count 	0
attr title  "ARP initiated resolutions, count"
scalar University.mainR.networkLayer.arp 	sentReply:count 	0
attr title  "ARP replies sent, count"
scalar University.mainR.networkLayer.arp 	sentReq:count 	0
attr title  "ARP request sent, count"
scalar University.mainR.networkLayer.arp 	failedARPResolution:count 	0
attr title  "ARP failed resolutions, count"
scalar University.mainR.networkLayer.arp 	completedARPResolution:count 	0
attr title  "ARP completed resolutions, count"
scalar University.mainR.lo0.lo 	rcvdPkFromHL:count 	0
attr interpolationmode  none
attr source  packetReceivedFromUpper
attr title  "packets received from higher layer, count"
scalar University.mainR.lo0.lo 	rcvdPkFromHL:sum(packetBytes) 	0
attr interpolationmode  none
attr source  packetReceivedFromUpper
attr title  "packets received from higher layer, sum(packetBytes)"
scalar University.mainR.lo0.lo 	passedUpPk:count 	0
attr interpolationmode  none
attr source  packetSentToUpper
attr title  "packets passed to higher layer, count"
scalar University.mainR.lo0.lo 	passedUpPk:sum(packetBytes) 	0
attr interpolationmode  none
attr source  packetSentToUpper
attr title  "packets passed to higher layer, sum(packetBytes)"
scalar University.mainR.lo0.lo 	droppedPkBitError:count 	0
attr interpolationmode  none
attr source  dropPkBitError
attr title  "packets dropped/bit error, count"
scalar University.mainR.lo0.lo 	droppedPkBitError:sum(packetBytes) 	0
attr interpolationmode  none
attr source  dropPkBitError
attr title  "packets dropped/bit error, sum(packetBytes)"
statistic University.mainR.ppp[0].queue 	queueingTime:histogram
field count 4023163
field mean 0.025309262528287
field stddev 0.031926183097304
field sum 101823.28856109
field sqrsum 6677.8056007302
field min 0
field max 0.10046666659
attr interpolationmode  none
attr title  "queueing time, histogram"
bin	-INF	0
bin	-0.0019143693465	0
bin	-0.0016591201003	0
bin	-0.0014038708541	0
bin	-0.0011486216079	0
bin	-0.0008933723617	0
bin	-0.0006381231155	0
bin	-0.0003828738693	0
bin	-0.0001276246231	501555
bin	0.0001276246231	25581
bin	0.0003828738693	43948
bin	0.0006381231155	117208
bin	0.0008933723617	68857
bin	0.0011486216079	29468
bin	0.0014038708541	27112
bin	0.0016591201003	84625
bin	0.0019143693465	38620
bin	0.0021696185927	27168
bin	0.0024248678389	65561
bin	0.0026801170851	42271
bin	0.0029353663313	38466
bin	0.0031906155775	33664
bin	0.0034458648237	75820
bin	0.0037011140699	40793
bin	0.0039563633161	50647
bin	0.0042116125623	82543
bin	0.0044668618085	41828
bin	0.0047221110547	47586
bin	0.0049773603009	80389
bin	0.0052326095471	83379
bin	0.0054878587933	36913
bin	0.0057431080395	2339161
scalar University.mainR.ppp[0].queue 	dropPk:count 	174284
attr interpolationmode  none
attr source  dropPkByQueue
attr title  "dropped packets, count"
scalar University.mainR.ppp[0].queue 	dropPk:sum(packetBytes) 	259931685
attr interpolationmode  none
attr source  dropPkByQueue
attr title  "dropped packets, sum(packetBytes)"
scalar University.mainR.ppp[0].queue 	queueLength:max 	100
attr interpolationmode  sample-hold
attr title  "queue length, max"
scalar University.mainR.ppp[0].queue 	queueLength:timeavg 	18.856163913243
attr interpolationmode  sample-hold
attr title  "queue length, timeavg"
scalar University.mainR.ppp[0].queue 	rcvdPk:count 	4197447
attr interpolationmode  none
attr title  "received packets, count"
scalar University.mainR.ppp[0].queue 	rcvdPk:sum(packetBytes) 	5868264615
attr interpolationmode  none
attr title  "received packets, sum(packetBytes)"
scalar University.mainR.ppp[0].ppp 	rcvdPkFromHL:count 	4023163
attr interpolationmode  none
attr source  packetReceivedFromUpper
attr title  "packets received from higher layer, count"
scalar University.mainR.ppp[0].ppp 	rcvdPkFromHL:sum(packetBytes) 	5608332930
attr interpolationmode  none
attr source  packetReceivedFromUpper
attr title  "packets received from higher layer, sum(packetBytes)"
scalar University.mainR.ppp[0].ppp 	passedUpPk:count 	4925477
attr interpolationmode  none
attr source  packetSentToUpper
attr title  "packets passed to higher layer, count"
scalar University.mainR.ppp[0].ppp 	passedUpPk:sum(packetBytes) 	2110028756
attr interpolationmode  none
attr source  packetSentToUpper
attr title  "packets passed to higher layer, sum(packetBytes)"
scalar University.mainR.ppp[0].ppp 	txPk:count 	4023163
attr interpolationmode  none
attr source  packetSentToLower
attr title  "packets transmitted, count"
scalar University.mainR.ppp[0].ppp 	txPk:sum(packetBytes) 	5636495071
attr interpolationmode  none
attr source  packetSentToLower
attr title  "packets transmitted, sum(packetBytes)"
scalar University.mainR.ppp[0].ppp 	droppedPkBitError:count 	0
attr interpolationmode  none
attr source  dropPkBitError
attr title  "packets dropped/bit error, count"
scalar University.mainR.ppp[0].ppp 	droppedPkBitError:sum(packetBytes) 	0
attr interpolationmode  none
attr source  dropPkBitError
attr title  "packets dropped/bit error, sum(packetBytes)"
scalar University.mainR.ppp[0].ppp 	droppedPkIfaceDown:count 	0
attr interpolationmode  none
attr source  dropPkIfaceDown
attr title  "packets dropped/interface down, count"
scalar University.mainR.ppp[0].ppp 	droppedPkIfaceDown:sum(packetBytes) 	0
attr interpolationmode  none
attr source  dropPkIfaceDown
attr title  "packets dropped/interface down, sum(packetBytes)"
scalar University.mainR.ppp[0].ppp 	rxPkOk:count 	4925477
attr interpolationmode  none
attr source  rxPkOk
attr title  "packets received OK, count"
scalar University.mainR.ppp[0].ppp 	rxPkOk:sum(packetBytes) 	2144507095
attr interpolationmode  none
attr source  rxPkOk
attr title  "packets received OK, sum(packetBytes)"
scalar University.mainR.ppp[0].ppp 	txState:timeavg 	0.69586356513922
attr interpolationmode  sample-hold
attr title  "tx state, timeavg"
statistic University.mainR.ppp[1].queue 	queueingTime:histogram
field count 134971
field mean 0
field stddev 0
field sum 0
field sqrsum 0
field min 0
field max 0
attr interpolationmode  none
attr title  "queueing time, histogram"
bin	-INF	0
bin	-0.5	0
bin	-0.46666666666667	0
bin	-0.43333333333333	0
bin	-0.4	0
bin	-0.36666666666667	0
bin	-0.33333333333333	0
bin	-0.3	0
bin	-0.26666666666667	0
bin	-0.23333333333333	0
bin	-0.2	0
bin	-0.16666666666667	0
bin	-0.13333333333333	0
bin	-0.1	0
bin	-0.066666666666667	0
bin	-0.033333333333333	0
bin	0	134971
bin	0.033333333333333	0
bin	0.066666666666667	0
bin	0.1	0
bin	0.13333333333333	0
bin	0.16666666666667	0
bin	0.2	0
bin	0.23333333333333	0
bin	0.26666666666667	0
bin	0.3	0
bin	0.33333333333333	0
bin	0.36666666666667	0
bin	0.4	0
bin	0.43333333333333	0
bin	0.46666666666667	0
bin	0.5	0
scalar University.mainR.ppp[1].queue 	dropPk:count 	0
attr interpolationmode  none
attr source  dropPkByQueue
attr title  "dropped packets, count"
scalar University.mainR.ppp[1].queue 	dropPk:sum(packetBytes) 	0
attr interpolationmode  none
attr source  dropPkByQueue
attr title  "dropped packets, sum(packetBytes)"
scalar University.mainR.ppp[1].queue 	queueLength:max 	0
attr interpolationmode  sample-hold
attr title  "queue length, max"
scalar University.mainR.ppp[1].queue 	queueLength:timeavg 	0
attr interpolationmode  sample-hold
attr title  "queue length, timeavg"
scalar University.mainR.ppp[1].queue 	rcvdPk:count 	134971
attr interpolationmode  none
attr title  "received packets, count"
scalar University.mainR.ppp[1].queue 	rcvdPk:sum(packetBytes) 	192738588
attr interpolationmode  none
attr title  "received packets, sum(packetBytes)"
scalar University.mainR.ppp[1].ppp 	rcvdPkFromHL:count 	134971
attr interpolationmode  none
attr source  packetReceivedFromUpper
attr title  "packets received from higher layer, count"
scalar University.mainR.ppp[1].ppp 	rcvdPkFromHL:sum(packetBytes) 	192738588
attr interpolationmode  none
attr source  packetReceivedFromUpper
attr title  "packets received from higher layer, sum(packetBytes)"
scalar University.mainR.ppp[1].ppp 	passedUpPk:count 	135000
attr interpolationmode  none
attr source  packetSentToUpper
attr title  "packets passed to higher layer, count"
scalar University.mainR.ppp[1].ppp 	passedUpPk:sum(packetBytes) 	192780000
attr interpolationmode  none
attr source  packetSentToUpper
attr title  "packets passed to higher layer, sum(packetBytes)"
scalar University.mainR.ppp[1].ppp 	txPk:count 	134971
attr interpolationmode  none
attr source  packetSentToLower
attr title  "packets transmitted, count"
scalar University.mainR.ppp[1].ppp 	txPk:sum(packetBytes) 	193683385
attr interpolationmode  none
attr source  packetSentToLower
attr title  "packets transmitted, sum(packetBytes)"
scalar University.mainR.ppp[1].ppp 	droppedPkBitError:count 	0
attr interpolationmode  none
attr source  dropPkBitError
attr title  "packets dropped/bit error, count"
scalar University.mainR.ppp[1].ppp 	droppedPkBitError:sum(packetBytes) 	0
attr interpolationmode  none
attr source  dropPkBitError
attr title  "packets dropped/bit error, sum(packetBytes)"
scalar University.mainR.ppp[1].ppp 	droppedPkIfaceDown:count 	0
attr interpolationmode  none
attr source  dropPkIfaceDown
attr title  "packets dropped/interface down, count"
scalar University.mainR.ppp[1].ppp 	droppedPkIfaceDown:sum(packetBytes) 	0
attr interpolationmode  none
attr source  dropPkIfaceDown
attr title  "packets dropped/interface down, sum(packetBytes)"
scalar University.mainR.ppp[1].ppp 	rxPkOk:count 	135000
attr interpolationmode  none
attr source  rxPkOk
attr title  "packets received OK, count"
scalar University.mainR.ppp[1].ppp 	rxPkOk:sum(packetBytes) 	193725000
attr interpolationmode  none
attr source  rxPkOk
attr title  "packets received OK, sum(packetBytes)"
scalar University.mainR.ppp[1].ppp 	txState:timeavg 	0
attr interpolationmode  sample-hold
attr title  "tx state, timeavg"
statistic University.mainR.ppp[2].queue 	queueingTime:histogram
field count 3845513
field mean 2.1954818520733e-06
field stddev 1.3401584239885e-05
field sum 8.4427540034118
field sqrsum 0.00070919932888899
field min 0
field max 8.9226667e-05
attr interpolationmode  none
attr title  "queueing time, histogram"
bin	-INF	0
bin	-4.46133335e-05	0
bin	-3.8664889033333e-05	0
bin	-3.2716444566667e-05	0
bin	-2.67680001e-05	0
bin	-2.0819555633333e-05	0
bin	-1.4871111166667e-05	0
bin	-8.9226667e-06	0
bin	-2.9742222333333e-06	3736980
bin	2.9742222333333e-06	4408
bin	8.9226667e-06	84
bin	1.4871111166667e-05	122
bin	2.0819555633333e-05	75
bin	2.67680001e-05	171
bin	3.2716444566667e-05	7257
bin	3.8664889033333e-05	60
bin	4.46133335e-05	48
bin	5.0561777966667e-05	129
bin	5.6510222433333e-05	15732
bin	6.24586669e-05	17
bin	6.8407111366667e-05	24
bin	7.4355555833333e-05	28
bin	8.03040003e-05	309
bin	8.6252444766667e-05	80069
bin	9.2200889233333e-05	0
bin	9.81493337e-05	0
bin	0.00010409777816667	0
bin	0.00011004622263333	0
bin	0.0001159946671	0
bin	0.00012194311156667	0
bin	0.00012789155603333	0
bin	0.0001338400005	0
scalar University.mainR.ppp[2].queue 	dropPk:count 	0
attr interpolationmode  none
attr source  dropPkByQueue
attr title  "dropped packets, count"
scalar University.mainR.ppp[2].queue 	dropPk:sum(packetBytes) 	0
attr interpolationmode  none
attr source  dropPkByQueue
attr title  "dropped packets, sum(packetBytes)"
scalar University.mainR.ppp[2].queue 	queueLength:max 	3
attr interpolationmode  sample-hold
attr title  "queue length, max"
scalar University.mainR.ppp[2].queue 	queueLength:timeavg 	0.0015634729109433
attr interpolationmode  sample-hold
attr title  "queue length, timeavg"
scalar University.mainR.ppp[2].queue 	rcvdPk:count 	3845513
attr interpolationmode  none
attr title  "received packets, count"
scalar University.mainR.ppp[2].queue 	rcvdPk:sum(packetBytes) 	514920556
attr interpolationmode  none
attr title  "received packets, sum(packetBytes)"
scalar University.mainR.ppp[2].ppp 	rcvdPkFromHL:count 	3845513
attr interpolationmode  none
attr source  packetReceivedFromUpper
attr title  "packets received from higher layer, count"
scalar University.mainR.ppp[2].ppp 	rcvdPkFromHL:sum(packetBytes) 	514920556
attr interpolationmode  none
attr source  packetReceivedFromUpper
attr title  "packets received from higher layer, sum(packetBytes)"
scalar University.mainR.ppp[2].ppp 	passedUpPk:count 	4062446
attr interpolationmode  none
attr source  packetSentToUpper
attr title  "packets passed to higher layer, count"
scalar University.mainR.ppp[2].ppp 	passedUpPk:sum(packetBytes) 	5675484587
attr interpolationmode  none
attr source  packetSentToUpper
attr title  "packets passed to higher layer, sum(packetBytes)"
scalar University.mainR.ppp[2].ppp 	txPk:count 	3845513
attr interpolationmode  none
attr source  packetSentToLower
attr title  "packets transmitted, count"
scalar University.mainR.ppp[2].ppp 	txPk:sum(packetBytes) 	541839147
attr interpolationmode  none
attr source  packetSentToLower
attr title  "packets transmitted, sum(packetBytes)"
scalar University.mainR.ppp[2].ppp 	droppedPkBitError:count 	0
attr interpolationmode  none
attr source  dropPkBitError
attr title  "packets dropped/bit error, count"
scalar University.mainR.ppp[2].ppp 	droppedPkBitError:sum(packetBytes) 	0
attr interpolationmode  none
attr source  dropPkBitError
attr title  "packets dropped/bit error, sum(packetBytes)"
scalar University.mainR.ppp[2].ppp 	droppedPkIfaceDown:count 	0
attr interpolationmode  none
attr source  dropPkIfaceDown
attr title  "packets dropped/interface down, count"
scalar University.mainR.ppp[2].ppp 	droppedPkIfaceDown:sum(packetBytes) 	0
attr interpolationmode  none
attr source  dropPkIfaceDown
attr title  "packets dropped/interface down, sum(packetBytes)"
scalar University.mainR.ppp[2].ppp 	rxPkOk:count 	4062446
attr interpolationmode  none
attr source  rxPkOk
attr title  "packets received OK, count"
scalar University.mainR.ppp[2].ppp 	rxPkOk:sum(packetBytes) 	5703921709
attr interpolationmode  none
attr source  rxPkOk
attr title  "packets received OK, sum(packetBytes)"
scalar University.mainR.ppp[2].ppp 	txState:timeavg 	0.0080272463501373
attr interpolationmode  sample-hold
attr title  "tx state, timeavg"
statistic University.mainR.ppp[3].queue 	queueingTime:histogram
field count 944993
field mean 0
field stddev 0
field sum 0
field sqrsum 0
field min 0
field max 0
attr interpolationmode  none
attr title  "queueing time, histogram"
bin	-INF	0
bin	-0.5	0
bin	-0.46666666666667	0
bin	-0.43333333333333	0
bin	-0.4	0
bin	-0.36666666666667	0
bin	-0.33333333333333	0
bin	-0.3	0
bin	-0.26666666666667	0
bin	-0.23333333333333	0
bin	-0.2	0
bin	-0.16666666666667	0
bin	-0.13333333333333	0
bin	-0.1	0
bin	-0.066666666666667	0
bin	-0.033333333333333	0
bin	0	944993
bin	0.033333333333333	0
bin	0.066666666666667	0
bin	0.1	0
bin	0.13333333333333	0
bin	0.16666666666667	0
bin	0.2	0
bin	0.23333333333333	0
bin	0.26666666666667	0
bin	0.3	0
bin	0.33333333333333	0
bin	0.36666666666667	0
bin	0.4	0
bin	0.43333333333333	0
bin	0.46666666666667	0
bin	0.5	0
scalar University.mainR.ppp[3].queue 	dropPk:count 	0
attr interpolationmode  none
attr source  dropPkByQueue
attr title  "dropped packets, count"
scalar University.mainR.ppp[3].queue 	dropPk:sum(packetBytes) 	0
attr interpolationmode  none
attr source  dropPkByQueue
attr title  "dropped packets, sum(packetBytes)"
scalar University.mainR.ppp[3].queue 	queueLength:max 	0
attr interpolationmode  sample-hold
attr title  "queue length, max"
scalar University.mainR.ppp[3].queue 	queueLength:timeavg 	0
attr interpolationmode  sample-hold
attr title  "queue length, timeavg"
scalar University.mainR.ppp[3].queue 	rcvdPk:count 	944993
attr interpolationmode  none
attr title  "received packets, count"
scalar University.mainR.ppp[3].queue 	rcvdPk:sum(packetBytes) 	1402369612
attr interpolationmode  none
attr title  "received packets, sum(packetBytes)"
scalar University.mainR.ppp[3].ppp 	rcvdPkFromHL:count 	944993
attr interpolationmode  none
attr source  packetReceivedFromUpper
attr title  "packets received from higher layer, count"
scalar University.mainR.ppp[3].ppp 	rcvdPkFromHL:sum(packetBytes) 	1402369612
attr interpolationmode  none
attr source  packetReceivedFromUpper
attr title  "packets received from higher layer, sum(packetBytes)"
scalar University.mainR.ppp[3].ppp 	passedUpPk:count 	1
attr interpolationmode  none
attr source  packetSentToUpper
attr title  "packets passed to higher layer, count"
scalar University.mainR.ppp[3].ppp 	passedUpPk:sum(packetBytes) 	28
attr interpolationmode  none
attr source  packetSentToUpper
attr title  "packets passed to higher layer, sum(packetBytes)"
scalar University.mainR.ppp[3].ppp 	txPk:count 	944993
attr interpolationmode  none
attr source  packetSentToLower
attr title  "packets transmitted, count"
scalar University.mainR.ppp[3].ppp 	txPk:sum(packetBytes) 	1408984563
attr interpolationmode  none
attr source  packetSentToLower
attr title  "packets transmitted, sum(packetBytes)"
scalar University.mainR.ppp[3].ppp 	droppedPkBitError:count 	0
attr interpolationmode  none
attr source  dropPkBitError
attr title  "packets dropped/bit error, count"
scalar University.mainR.ppp[3].ppp 	droppedPkBitError:sum(packetBytes) 	0
attr interpolationmode  none
attr source  dropPkBitError
attr title  "packets dropped/bit error, sum(packetBytes)"
scalar University.mainR.ppp[3].ppp 	droppedPkIfaceDown:count 	0
attr interpolationmode  none
attr source  dropPkIfaceDown
attr title  "packets dropped/interface down, count"
scalar University.mainR.ppp[3].ppp 	droppedPkIfaceDown:sum(packetBytes) 	0
attr interpolationmode  none
attr source  dropPkIfaceDown
attr title  "packets dropped/interface down, sum(packetBytes)"
scalar University.mainR.ppp[3].ppp 	rxPkOk:count 	1
attr interpolationmode  none
attr source  rxPkOk
attr title  "packets received OK, count"
scalar University.mainR.ppp[3].ppp 	rxPkOk:sum(packetBytes) 	35
attr interpolationmode  none
attr source  rxPkOk
attr title  "packets received OK, sum(packetBytes)"
scalar University.mainR.ppp[3].ppp 	txState:timeavg 	0
attr interpolationmode  sample-hold
attr title  "tx state, timeavg"
scalar University.ccTVMonitoringHost.networkLayer.arp 	initiatedARPResolution:count 	0
attr title  "ARP initiated resolutions, count"
scalar University.ccTVMonitoringHost.networkLayer.arp 	sentReply:count 	0
attr title  "ARP replies sent, count"
scalar University.ccTVMonitoringHost.networkLayer.arp 	sentReq:count 	0
attr title  "ARP request sent, count"
scalar University.ccTVMonitoringHost.networkLayer.arp 	failedARPResolution:count 	0
attr title  "ARP failed resolutions, count"
scalar University.ccTVMonitoringHost.networkLayer.arp 	completedARPResolution:count 	0
attr title  "ARP completed resolutions, count"
scalar University.ccTVMonitoringHost.lo0.lo 	rcvdPkFromHL:count 	0
attr interpolationmode  none
attr source  packetReceivedFromUpper
attr title  "packets received from higher layer, count"
scalar University.ccTVMonitoringHost.lo0.lo 	rcvdPkFromHL:sum(packetBytes) 	0
attr interpolationmode  none
attr source  packetReceivedFromUpper
attr title  "packets received from higher layer, sum(packetBytes)"
scalar University.ccTVMonitoringHost.lo0.lo 	passedUpPk:count 	0
attr interpolationmode  none
attr source  packetSentToUpper
attr title  "packets passed to higher layer, count"
scalar University.ccTVMonitoringHost.lo0.lo 	passedUpPk:sum(packetBytes) 	0
attr interpolationmode  none
attr source  packetSentToUpper
attr title  "packets passed to higher layer, sum(packetBytes)"
scalar University.ccTVMonitoringHost.lo0.lo 	droppedPkBitError:count 	0
attr interpolationmode  none
attr source  dropPkBitError
attr title  "packets dropped/bit error, count"
scalar University.ccTVMonitoringHost.lo0.lo 	droppedPkBitError:sum(packetBytes) 	0
attr interpolationmode  none
attr source  dropPkBitError
attr title  "packets dropped/bit error, sum(packetBytes)"
statistic University.ccTVMonitoringHost.ppp[0].queue 	queueingTime:histogram
field count 1
field mean 0
field stddev -nan
field sum 0
field sqrsum 0
field min 0
field max 0
attr interpolationmode  none
attr title  "queueing time, histogram"
bin	-INF	0
bin	-0.5	0
bin	-0.46666666666667	0
bin	-0.43333333333333	0
bin	-0.4	0
bin	-0.36666666666667	0
bin	-0.33333333333333	0
bin	-0.3	0
bin	-0.26666666666667	0
bin	-0.23333333333333	0
bin	-0.2	0
bin	-0.16666666666667	0
bin	-0.13333333333333	0
bin	-0.1	0
bin	-0.066666666666667	0
bin	-0.033333333333333	0
bin	0	1
bin	0.033333333333333	0
bin	0.066666666666667	0
bin	0.1	0
bin	0.13333333333333	0
bin	0.16666666666667	0
bin	0.2	0
bin	0.23333333333333	0
bin	0.26666666666667	0
bin	0.3	0
bin	0.33333333333333	0
bin	0.36666666666667	0
bin	0.4	0
bin	0.43333333333333	0
bin	0.46666666666667	0
bin	0.5	0
scalar University.ccTVMonitoringHost.ppp[0].queue 	dropPk:count 	0
attr interpolationmode  none
attr source  dropPkByQueue
attr title  "dropped packets, count"
scalar University.ccTVMonitoringHost.ppp[0].queue 	dropPk:sum(packetBytes) 	0
attr interpolationmode  none
attr source  dropPkByQueue
attr title  "dropped packets, sum(packetBytes)"
scalar University.ccTVMonitoringHost.ppp[0].queue 	queueLength:max 	0
attr interpolationmode  sample-hold
attr title  "queue length, max"
scalar University.ccTVMonitoringHost.ppp[0].queue 	queueLength:timeavg 	0
attr interpolationmode  sample-hold
attr title  "queue length, timeavg"
scalar University.ccTVMonitoringHost.ppp[0].queue 	rcvdPk:count 	1
attr interpolationmode  none
attr title  "received packets, count"
scalar University.ccTVMonitoringHost.ppp[0].queue 	rcvdPk:sum(packetBytes) 	28
attr interpolationmode  none
attr title  "received packets, sum(packetBytes)"
scalar University.ccTVMonitoringHost.ppp[0].ppp 	rcvdPkFromHL:count 	1
attr interpolationmode  none
attr source  packetReceivedFromUpper
attr title  "packets received from higher layer, count"
scalar University.ccTVMonitoringHost.ppp[0].ppp 	rcvdPkFromHL:sum(packetBytes) 	28
attr interpolationmode  none
attr source  packetReceivedFromUpper
attr title  "packets received from higher layer, sum(packetBytes)"
scalar University.ccTVMonitoringHost.ppp[0].ppp 	passedUpPk:count 	944993
attr interpolationmode  none
attr source  packetSentToUpper
attr title  "packets passed to higher layer, count"
scalar University.ccTVMonitoringHost.ppp[0].ppp 	passedUpPk:sum(packetBytes) 	1402369612
attr interpolationmode  none
attr source  packetSentToUpper
attr title  "packets passed to higher layer, sum(packetBytes)"
scalar University.ccTVMonitoringHost.ppp[0].ppp 	txPk:count 	1
attr interpolationmode  none
attr source  packetSentToLower
attr title  "packets transmitted, count"
scalar University.ccTVMonitoringHost.ppp[0].ppp 	txPk:sum(packetBytes) 	35
attr interpolationmode  none
attr source  packetSentToLower
attr title  "packets transmitted, sum(packetBytes)"
scalar University.ccTVMonitoringHost.ppp[0].ppp 	droppedPkBitError:count 	0
attr interpolationmode  none
attr source  dropPkBitError
attr title  "packets dropped/bit error, count"
scalar University.ccTVMonitoringHost.ppp[0].ppp 	droppedPkBitError:sum(packetBytes) 	0
attr interpolationmode  none
attr source  dropPkBitError
attr title  "packets dropped/bit error, sum(packetBytes)"
scalar University.ccTVMonitoringHost.ppp[0].ppp 	droppedPkIfaceDown:count 	0
attr interpolationmode  none
attr source  dropPkIfaceDown
attr title  "packets dropped/interface down, count"
scalar University.ccTVMonitoringHost.ppp[0].ppp 	droppedPkIfaceDown:sum(packetBytes) 	0
attr interpolationmode  none
attr source  dropPkIfaceDown
attr title  "packets dropped/interface down, sum(packetBytes)"
scalar University.ccTVMonitoringHost.ppp[0].ppp 	rxPkOk:count 	944993
attr interpolationmode  none
attr source  rxPkOk
attr title  "packets received OK, count"
scalar University.ccTVMonitoringHost.ppp[0].ppp 	rxPkOk:sum(packetBytes) 	1408984563
attr interpolationmode  none
attr source  rxPkOk
attr title  "packets received OK, sum(packetBytes)"
scalar University.ccTVMonitoringHost.ppp[0].ppp 	txState:timeavg 	0
attr interpolationmode  sample-hold
attr title  "tx state, timeavg"
scalar University.ccTVMonitoringHost.udpApp[0] 	rcvdPk:count 	134999
attr interpolationmode  none
attr source  rcvdPk
attr title  "packets received, count"
scalar University.ccTVMonitoringHost.udpApp[0] 	rcvdPk:sum(packetBytes) 	1382389760
attr interpolationmode  none
attr source  rcvdPk
attr title  "packets received, sum(packetBytes)"
statistic University.ccTVMonitoringHost.udpApp[0] 	endToEndDelay:histogram
field count 134999
field mean 0.017213486776559
field stddev 0.0005989681151129
field sum 2323.8035013487
field sqrsum 40.049193102657
field min 0.017080129996
field max 0.045496796565
attr interpolationmode  none
attr source  messageAge(rcvdPk)
attr title  "end-to-end delay, histogram"
attr unit  s
bin	-INF	0
bin	0.010268207493	0
bin	0.011176463826733	0
bin	0.012084720160467	0
bin	0.0129929764942	0
bin	0.013901232827933	0
bin	0.014809489161667	0
bin	0.0157177454954	0
bin	0.016626001829133	124791
bin	0.017534258162867	7555
bin	0.0184425144966	1537
bin	0.019350770830333	497
bin	0.020259027164067	186
bin	0.0211672834978	123
bin	0.022075539831533	78
bin	0.022983796165267	40
bin	0.023892052499	31
bin	0.024800308832733	34
bin	0.025708565166467	29
bin	0.0266168215002	21
bin	0.027525077833933	12
bin	0.028433334167667	10
bin	0.0293415905014	8
bin	0.030249846835133	7
bin	0.031158103168867	9
bin	0.0320663595026	4
bin	0.032974615836333	4
bin	0.033882872170067	8
bin	0.0347911285038	1
bin	0.035699384837533	2
bin	0.036607641171267	4
bin	0.037515897505	8
scalar University.ccTVMonitoringHost.udp 	droppedPkBadChecksum:count 	0
attr interpolationmode  none
attr title  "packets dropped (checksum error), count"
scalar University.ccTVMonitoringHost.udp 	droppedPkWrongPort:count 	0
attr interpolationmode  none
attr title  "packets dropped (wrong port), count"
scalar University.ccTVMonitoringHost.udp 	passedUpPk:count 	134999
attr interpolationmode  none
attr title  "packets passed up, count"
scalar University.ccTVMonitoringHost.udp 	sentPk:count 	1
attr interpolationmode  none
attr source  sentPk
attr title  "packets sent, count"
scalar University.ccTVMonitoringHost.udp 	sentPk:sum(packetBytes) 	8
attr interpolationmode  none
attr source  sentPk
attr title  "packets sent, sum(packetBytes)"
scalar University.ccTVMonitoringHost.udp 	rcvdPk:count 	134999
attr interpolationmode  none
attr source  rcvdPk
attr title  "packets received, count"
scalar University.ccTVMonitoringHost.udp 	rcvdPk:sum(packetBytes) 	1383469752
attr interpolationmode  none
attr source  rcvdPk
attr title  "packets received, sum(packetBytes)"
scalar University.profLaptop.networkLayer.arp 	initiatedARPResolution:count 	0
attr title  "ARP initiated resolutions, count"
scalar University.profLaptop.networkLayer.arp 	sentReply:count 	0
attr title  "ARP replies sent, count"
scalar University.profLaptop.networkLayer.arp 	sentReq:count 	0
attr title  "ARP request sent, count"
scalar University.profLaptop.networkLayer.arp 	failedARPResolution:count 	0
attr title  "ARP failed resolutions, count"
scalar University.profLaptop.networkLayer.arp 	completedARPResolution:count 	0
attr title  "ARP completed resolutions, count"
scalar University.profLaptop.lo0.lo 	rcvdPkFromHL:count 	0
attr interpolationmode  none
attr source  packetReceivedFromUpper
attr title  "packets received from higher layer, count"
scalar University.profLaptop.lo0.lo 	rcvdPkFromHL:sum(packetBytes) 	0
attr interpolationmode  none
attr source  packetReceivedFromUpper
attr title  "packets received from higher layer, sum(packetBytes)"
scalar University.profLaptop.lo0.lo 	passedUpPk:count 	0
attr interpolationmode  none
attr source  packetSentToUpper
attr title  "packets passed to higher layer, count"
scalar University.profLaptop.lo0.lo 	passedUpPk:sum(packetBytes) 	0
attr interpolationmode  none
attr source  packetSentToUpper
attr title  "packets passed to higher layer, sum(packetBytes)"
scalar University.profLaptop.lo0.lo 	droppedPkBitError:count 	0
attr interpolationmode  none
attr source  dropPkBitError
attr title  "packets dropped/bit error, count"
scalar University.profLaptop.lo0.lo 	droppedPkBitError:sum(packetBytes) 	0
attr interpolationmode  none
attr source  dropPkBitError
attr title  "packets dropped/bit error, sum(packetBytes)"
statistic University.profLaptop.ppp[0].queue 	queueingTime:histogram
field count 135000
field mean 0
field stddev 0
field sum 0
field sqrsum 0
field min 0
field max 0
attr interpolationmode  none
attr title  "queueing time, histogram"
bin	-INF	0
bin	-0.5	0
bin	-0.46666666666667	0
bin	-0.43333333333333	0
bin	-0.4	0
bin	-0.36666666666667	0
bin	-0.33333333333333	0
bin	-0.3	0
bin	-0.26666666666667	0
bin	-0.23333333333333	0
bin	-0.2	0
bin	-0.16666666666667	0
bin	-0.13333333333333	0
bin	-0.1	0
bin	-0.066666666666667	0
bin	-0.033333333333333	0
bin	0	135000
bin	0.033333333333333	0
bin	0.066666666666667	0
bin	0.1	0
bin	0.13333333333333	0
bin	0.16666666666667	0
bin	0.2	0
bin	0.23333333333333	0
bin	0.26666666666667	0
bin	0.3	0
bin	0.33333333333333	0
bin	0.36666666666667	0
bin	0.4	0
bin	0.43333333333333	0
bin	0.46666666666667	0
bin	0.5	0
scalar University.profLaptop.ppp[0].queue 	dropPk:count 	0
attr interpolationmode  none
attr source  dropPkByQueue
attr title  "dropped packets, count"
scalar University.profLaptop.ppp[0].queue 	dropPk:sum(packetBytes) 	0
attr interpolationmode  none
attr source  dropPkByQueue
attr title  "dropped packets, sum(packetBytes)"
scalar University.profLaptop.ppp[0].queue 	queueLength:max 	0
attr interpolationmode  sample-hold
attr title  "queue length, max"
scalar University.profLaptop.ppp[0].queue 	queueLength:timeavg 	0
attr interpolationmode  sample-hold
attr title  "queue length, timeavg"
scalar University.profLaptop.ppp[0].queue 	rcvdPk:count 	135000
attr interpolationmode  none
attr title  "received packets, count"
scalar University.profLaptop.ppp[0].queue 	rcvdPk:sum(packetBytes) 	192780000
attr interpolationmode  none
attr title  "received packets, sum(packetBytes)"
scalar University.profLaptop.ppp[0].ppp 	rcvdPkFromHL:count 	135000
attr interpolationmode  none
attr source  packetReceivedFromUpper
attr title  "packets received from higher layer, count"
scalar University.profLaptop.ppp[0].ppp 	rcvdPkFromHL:sum(packetBytes) 	192780000
attr interpolationmode  none
attr source  packetReceivedFromUpper
attr title  "packets received from higher layer, sum(packetBytes)"
scalar University.profLaptop.ppp[0].ppp 	passedUpPk:count 	134970
attr interpolationmode  none
attr source  packetSentToUpper
attr title  "packets passed to higher layer, count"
scalar University.profLaptop.ppp[0].ppp 	passedUpPk:sum(packetBytes) 	192737160
attr interpolationmode  none
attr source  packetSentToUpper
attr title  "packets passed to higher layer, sum(packetBytes)"
scalar University.profLaptop.ppp[0].ppp 	txPk:count 	135000
attr interpolationmode  none
attr source  packetSentToLower
attr title  "packets transmitted, count"
scalar University.profLaptop.ppp[0].ppp 	txPk:sum(packetBytes) 	193725000
attr interpolationmode  none
attr source  packetSentToLower
attr title  "packets transmitted, sum(packetBytes)"
scalar University.profLaptop.ppp[0].ppp 	droppedPkBitError:count 	0
attr interpolationmode  none
attr source  dropPkBitError
attr title  "packets dropped/bit error, count"
scalar University.profLaptop.ppp[0].ppp 	droppedPkBitError:sum(packetBytes) 	0
attr interpolationmode  none
attr source  dropPkBitError
attr title  "packets dropped/bit error, sum(packetBytes)"
scalar University.profLaptop.ppp[0].ppp 	droppedPkIfaceDown:count 	0
attr interpolationmode  none
attr source  dropPkIfaceDown
attr title  "packets dropped/interface down, count"
scalar University.profLaptop.ppp[0].ppp 	droppedPkIfaceDown:sum(packetBytes) 	0
attr interpolationmode  none
attr source  dropPkIfaceDown
attr title  "packets dropped/interface down, sum(packetBytes)"
scalar University.profLaptop.ppp[0].ppp 	rxPkOk:count 	134970
attr interpolationmode  none
attr source  rxPkOk
attr title  "packets received OK, count"
scalar University.profLaptop.ppp[0].ppp 	rxPkOk:sum(packetBytes) 	193681950
attr interpolationmode  none
attr source  rxPkOk
attr title  "packets received OK, sum(packetBytes)"
scalar University.profLaptop.ppp[0].ppp 	txState:timeavg 	0
attr interpolationmode  sample-hold
attr title  "tx state, timeavg"
scalar University.profLaptop.udpApp[0] 	"packets sent" 	135000
scalar University.profLaptop.udpApp[0] 	"packets received" 	134970
scalar University.profLaptop.udpApp[0] 	sentPk:count 	135000
attr interpolationmode  none
attr source  sentPk
attr title  "packets sent, count"
scalar University.profLaptop.udpApp[0] 	sentPk:sum(packetBytes) 	189000000
attr interpolationmode  none
attr source  sentPk
attr title  "packets sent, sum(packetBytes)"
scalar University.profLaptop.udpApp[0] 	rcvdPk:count 	134970
attr interpolationmode  none
attr source  rcvdPk
attr title  "packets received, count"
scalar University.profLaptop.udpApp[0] 	rcvdPk:sum(packetBytes) 	188958000
attr interpolationmode  none
attr source  rcvdPk
attr title  "packets received, sum(packetBytes)"
statistic University.profLaptop.udpApp[0] 	rcvdPkLifetime:stats
field count 134970
field mean 0.017880595179227
field stddev 0.0091971329429293
field sum 2413.3439313403
field sqrsum 54.568682999594
field min 0.016345632021
field max 1.013479470189
attr interpolationmode  none
attr source  messageAge(rcvdPk)
attr title  "received packet lifetime, stats"
attr unit  s
scalar University.profLaptop.udp 	droppedPkBadChecksum:count 	0
attr interpolationmode  none
attr title  "packets dropped (checksum error), count"
scalar University.profLaptop.udp 	droppedPkWrongPort:count 	0
attr interpolationmode  none
attr title  "packets dropped (wrong port), count"
scalar University.profLaptop.udp 	passedUpPk:count 	134970
attr interpolationmode  none
attr title  "packets passed up, count"
scalar University.profLaptop.udp 	sentPk:count 	135000
attr interpolationmode  none
attr source  sentPk
attr title  "packets sent, count"
scalar University.profLaptop.udp 	sentPk:sum(packetBytes) 	190080000
attr interpolationmode  none
attr source  sentPk
attr title  "packets sent, sum(packetBytes)"
scalar University.profLaptop.udp 	rcvdPk:count 	134970
attr interpolationmode  none
attr source  rcvdPk
attr title  "packets received, count"
scalar University.profLaptop.udp 	rcvdPk:sum(packetBytes) 	190037760
attr interpolationmode  none
attr source  rcvdPk
attr title  "packets received, sum(packetBytes)"
scalar University.Server.networkLayer.arp 	initiatedARPResolution:count 	0
attr title  "ARP initiated resolutions, count"
scalar University.Server.networkLayer.arp 	sentReply:count 	0
attr title  "ARP replies sent, count"
scalar University.Server.networkLayer.arp 	sentReq:count 	0
attr title  "ARP request sent, count"
scalar University.Server.networkLayer.arp 	failedARPResolution:count 	0
attr title  "ARP failed resolutions, count"
scalar University.Server.networkLayer.arp 	completedARPResolution:count 	0
attr title  "ARP completed resolutions, count"
scalar University.Server.lo0.lo 	rcvdPkFromHL:count 	0
attr interpolationmode  none
attr source  packetReceivedFromUpper
attr title  "packets received from higher layer, count"
scalar University.Server.lo0.lo 	rcvdPkFromHL:sum(packetBytes) 	0
attr interpolationmode  none
attr source  packetReceivedFromUpper
attr title  "packets received from higher layer, sum(packetBytes)"
scalar University.Server.lo0.lo 	passedUpPk:count 	0
attr interpolationmode  none
attr source  packetSentToUpper
attr title  "packets passed to higher layer, count"
scalar University.Server.lo0.lo 	passedUpPk:sum(packetBytes) 	0
attr interpolationmode  none
attr source  packetSentToUpper
attr title  "packets passed to higher layer, sum(packetBytes)"
scalar University.Server.lo0.lo 	droppedPkBitError:count 	0
attr interpolationmode  none
attr source  dropPkBitError
attr title  "packets dropped/bit error, count"
scalar University.Server.lo0.lo 	droppedPkBitError:sum(packetBytes) 	0
attr interpolationmode  none
attr source  dropPkBitError
attr title  "packets dropped/bit error, sum(packetBytes)"
statistic University.Server.ppp[0].queue 	queueingTime:histogram
field count 4062498
field mean 0.00028139525396665
field stddev 0.0012308075830227
field sum 1143.167656449
field sqrsum 6.4759070907079
field min 0
field max 0.012056
attr interpolationmode  none
attr title  "queueing time, histogram"
bin	-INF	0
bin	-0.0001651733335	0
bin	-0.00014315022236667	0
bin	-0.00012112711123333	0
bin	-9.91040001e-05	0
bin	-7.7080888966667e-05	0
bin	-5.5057777833333e-05	0
bin	-3.30346667e-05	0
bin	-1.1011555566667e-05	2518372
bin	1.1011555566667e-05	4236
bin	3.30346667e-05	3319
bin	5.5057777833333e-05	6588
bin	7.7080888966667e-05	57088
bin	9.91040001e-05	809415
bin	0.00012112711123333	3350
bin	0.00014315022236667	6950
bin	0.0001651733335	53858
bin	0.00018719644463333	3631
bin	0.00020921955576667	36679
bin	0.0002312426669	23422
bin	0.00025326577803333	42736
bin	0.00027528888916667	2286
bin	0.0002973120003	22447
bin	0.00031933511143333	24198
bin	0.00034135822256667	47439
bin	0.0003633813337	1882
bin	0.00038540444483333	19874
bin	0.00040742755596667	21927
bin	0.0004294506671	24226
bin	0.00045147377823333	2136
bin	0.00047349688936667	23819
bin	0.0004955200005	302620
scalar University.Server.ppp[0].queue 	dropPk:count 	460320
attr interpolationmode  none
attr source  dropPkByQueue
attr title  "dropped packets, count"
scalar University.Server.ppp[0].queue 	dropPk:sum(packetBytes) 	689790368
attr interpolationmode  none
attr source  dropPkByQueue
attr title  "dropped packets, sum(packetBytes)"
scalar University.Server.ppp[0].queue 	queueLength:max 	100
attr interpolationmode  sample-hold
attr title  "queue length, max"
scalar University.Server.ppp[0].queue 	queueLength:timeavg 	0.21169770702897
attr interpolationmode  sample-hold
attr title  "queue length, timeavg"
scalar University.Server.ppp[0].queue 	rcvdPk:count 	4522818
attr interpolationmode  none
attr title  "received packets, count"
scalar University.Server.ppp[0].queue 	rcvdPk:sum(packetBytes) 	6365352955
attr interpolationmode  none
attr title  "received packets, sum(packetBytes)"
scalar University.Server.ppp[0].ppp 	rcvdPkFromHL:count 	4062498
attr interpolationmode  none
attr source  packetReceivedFromUpper
attr title  "packets received from higher layer, count"
scalar University.Server.ppp[0].ppp 	rcvdPkFromHL:sum(packetBytes) 	5675562587
attr interpolationmode  none
attr source  packetReceivedFromUpper
attr title  "packets received from higher layer, sum(packetBytes)"
scalar University.Server.ppp[0].ppp 	passedUpPk:count 	3845485
attr interpolationmode  none
attr source  packetSentToUpper
attr title  "packets passed to higher layer, count"
scalar University.Server.ppp[0].ppp 	passedUpPk:sum(packetBytes) 	514919434
attr interpolationmode  none
attr source  packetSentToUpper
attr title  "packets passed to higher layer, sum(packetBytes)"
scalar University.Server.ppp[0].ppp 	txPk:count 	4062498
attr interpolationmode  none
attr source  packetSentToLower
attr title  "packets transmitted, count"
scalar University.Server.ppp[0].ppp 	txPk:sum(packetBytes) 	5704000073
attr interpolationmode  none
attr source  packetSentToLower
attr title  "packets transmitted, sum(packetBytes)"
scalar University.Server.ppp[0].ppp 	droppedPkBitError:count 	0
attr interpolationmode  none
attr source  dropPkBitError
attr title  "packets dropped/bit error, count"
scalar University.Server.ppp[0].ppp 	droppedPkBitError:sum(packetBytes) 	0
attr interpolationmode  none
attr source  dropPkBitError
attr title  "packets dropped/bit error, sum(packetBytes)"
scalar University.Server.ppp[0].ppp 	droppedPkIfaceDown:count 	0
attr interpolationmode  none
attr source  dropPkIfaceDown
attr title  "packets dropped/interface down, count"
scalar University.Server.ppp[0].ppp 	droppedPkIfaceDown:sum(packetBytes) 	0
attr interpolationmode  none
attr source  dropPkIfaceDown
attr title  "packets dropped/interface down, sum(packetBytes)"
scalar University.Server.ppp[0].ppp 	rxPkOk:count 	3845485
attr interpolationmode  none
attr source  rxPkOk
attr title  "packets received OK, count"
scalar University.Server.ppp[0].ppp 	rxPkOk:sum(packetBytes) 	541837829
attr interpolationmode  none
attr source  rxPkOk
attr title  "packets received OK, sum(packetBytes)"
scalar University.Server.ppp[0].ppp 	txState:timeavg 	0.084503701947895
attr interpolationmode  sample-hold
attr title  "tx state, timeavg"
scalar University.Server.tcpApp[0] 	sentPk:count 	5864
attr interpolationmode  none
attr source  sentPk
attr title  "packets sent, count"
scalar University.Server.tcpApp[0] 	sentPk:sum(packetBytes) 	4813355526
attr interpolationmode  none
attr source  sentPk
attr title  "packets sent, sum(packetBytes)"
scalar University.Server.tcpApp[0] 	rcvdPk:count 	5864
attr interpolationmode  none
attr source  rcvdPk
attr title  "packets received, count"
scalar University.Server.tcpApp[0] 	rcvdPk:sum(packetBytes) 	5864
attr interpolationmode  none
attr source  rcvdPk
attr title  "packets received, sum(packetBytes)"
statistic University.Server.tcpApp[0] 	endToEndDelay:histogram
field count 5864
field mean 0.11452695651176
field stddev 0.0021600633771566
field sum 671.58607298493
field sqrsum 76.942064992696
field min 0.113174251944
field max 0.1568754433
attr interpolationmode  none
attr source  messageAge(rcvdPk)
attr title  "end-to-end delay, histogram"
attr unit  s
bin	-INF	0
bin	0.10860185667	0
bin	0.1092115093732	0
bin	0.1098211620764	0
bin	0.1104308147796	0
bin	0.1110404674828	0
bin	0.111650120186	0
bin	0.1122597728892	0
bin	0.1128694255924	2625
bin	0.1134790782956	715
bin	0.1140887309988	833
bin	0.114698383702	441
bin	0.1153080364052	275
bin	0.1159176891084	194
bin	0.1165273418116	127
bin	0.1171369945148	163
bin	0.117746647218	115
bin	0.1183562999212	125
bin	0.1189659526244	81
bin	0.1195756053276	63
bin	0.1201852580308	30
bin	0.120794910734	20
bin	0.1214045634372	13
bin	0.1220142161404	4
bin	0.1226238688436	3
bin	0.1232335215468	3
bin	0.12384317425	4
bin	0.1244528269532	6
bin	0.1250624796564	4
bin	0.1256721323596	2
bin	0.1262817850628	5
bin	0.126891437766	13
scalar University.Server.tcpApp[1] 	sentPk:count 	318
attr interpolationmode  none
attr source  sentPk
attr title  "packets sent, count"
scalar University.Server.tcpApp[1] 	sentPk:sum(packetBytes) 	318
attr interpolationmode  none
attr source  sentPk
attr title  "packets sent, sum(packetBytes)"
scalar University.Server.tcpApp[1] 	rcvdPk:count 	318
attr interpolationmode  none
attr source  rcvdPk
attr title  "packets received, count"
scalar University.Server.tcpApp[1] 	rcvdPk:sum(packetBytes) 	333447168
attr interpolationmode  none
attr source  rcvdPk
attr title  "packets received, sum(packetBytes)"
statistic University.Server.tcpApp[1] 	endToEndDelay:histogram
field count 318
field mean 15.636140888083
field stddev 7.1144985920609
field sum 4972.2928024105
field sqrsum 93792.771393904
field min 3.229488434707
field max 53.707481948144
attr interpolationmode  none
attr source  messageAge(rcvdPk)
attr title  "end-to-end delay, histogram"
attr unit  s
bin	-INF	0
bin	-20.780215741243	0
bin	-17.547821178041	0
bin	-14.315426614838	0
bin	-11.083032051636	0
bin	-7.8506374884334	0
bin	-4.618242925231	0
bin	-1.3858483620286	0
bin	1.8465462011738	10
bin	5.0789407643762	22
bin	8.3113353275786	56
bin	11.543729890781	82
bin	14.776124453983	59
bin	18.008519017186	32
bin	21.240913580388	26
bin	24.473308143591	12
bin	27.705702706793	13
bin	30.938097269995	1
bin	34.170491833198	2
bin	37.4028863964	0
bin	40.635280959603	0
bin	43.867675522805	0
bin	47.100070086007	0
bin	50.33246464921	2
bin	53.564859212412	1
bin	56.797253775615	0
bin	60.029648338817	0
bin	63.262042902019	0
bin	66.494437465222	0
bin	69.726832028424	0
bin	72.959226591627	0
bin	76.191621154829	0
scalar University.CCTV.networkLayer.arp 	initiatedARPResolution:count 	44
attr title  "ARP initiated resolutions, count"
scalar University.CCTV.networkLayer.arp 	sentReply:count 	1
attr title  "ARP replies sent, count"
scalar University.CCTV.networkLayer.arp 	sentReq:count 	44
attr title  "ARP request sent, count"
scalar University.CCTV.networkLayer.arp 	failedARPResolution:count 	0
attr title  "ARP failed resolutions, count"
scalar University.CCTV.networkLayer.arp 	completedARPResolution:count 	45
attr title  "ARP completed resolutions, count"
scalar University.CCTV.lo0.lo 	rcvdPkFromHL:count 	0
attr interpolationmode  none
attr source  packetReceivedFromUpper
attr title  "packets received from higher layer, count"
scalar University.CCTV.lo0.lo 	rcvdPkFromHL:sum(packetBytes) 	0
attr interpolationmode  none
attr source  packetReceivedFromUpper
attr title  "packets received from higher layer, sum(packetBytes)"
scalar University.CCTV.lo0.lo 	passedUpPk:count 	0
attr interpolationmode  none
attr source  packetSentToUpper
attr title  "packets passed to higher layer, count"
scalar University.CCTV.lo0.lo 	passedUpPk:sum(packetBytes) 	0
attr interpolationmode  none
attr source  packetSentToUpper
attr title  "packets passed to higher layer, sum(packetBytes)"
scalar University.CCTV.lo0.lo 	droppedPkBitError:count 	0
attr interpolationmode  none
attr source  dropPkBitError
attr title  "packets dropped/bit error, count"
scalar University.CCTV.lo0.lo 	droppedPkBitError:sum(packetBytes) 	0
attr interpolationmode  none
attr source  dropPkBitError
attr title  "packets dropped/bit error, sum(packetBytes)"
scalar University.CCTV.eth[0].mac 	"simulated time" 	5400.0001818542
scalar University.CCTV.eth[0].mac 	full-duplex 	1
scalar University.CCTV.eth[0].mac 	"frames/sec sent" 	175.00832743963
scalar University.CCTV.eth[0].mac 	"frames/sec rcvd" 	0.0085185182316429
scalar University.CCTV.eth[0].mac 	"bits/sec sent" 	2102804.1958512
scalar University.CCTV.eth[0].mac 	"bits/sec rcvd" 	4.3614813346012
scalar University.CCTV.eth[0].mac 	"rx channel idle (%)" 	99.999995093333
scalar University.CCTV.eth[0].mac 	"rx channel utilization (%)" 	4.9066665014263e-06
scalar University.CCTV.eth[0].mac 	rxPkFromHL:count 	945045
attr interpolationmode  none
attr source  rxPkFromHL
attr title  "packet bytes from higher layer, count"
scalar University.CCTV.eth[0].mac 	rxPkFromHL:sum(packetBytes) 	1419392880
attr interpolationmode  none
attr source  rxPkFromHL
attr title  "packet bytes from higher layer, sum(packetBytes)"
scalar University.CCTV.eth[0].mac 	rxPausePkUnits:count 	0
attr interpolationmode  none
attr title  "pause units received, count"
scalar University.CCTV.eth[0].mac 	rxPausePkUnits:sum 	0
attr interpolationmode  none
attr title  "pause units received, sum"
scalar University.CCTV.eth[0].mac 	txPausePkUnits:count 	0
attr interpolationmode  none
attr title  "pause units sent, count"
scalar University.CCTV.eth[0].mac 	txPausePkUnits:sum 	0
attr interpolationmode  none
attr title  "pause units sent, sum"
scalar University.CCTV.eth[0].mac 	txPk:count 	945045
attr interpolationmode  none
attr source  txPk
attr title  "packets transmitted, count"
scalar University.CCTV.eth[0].mac 	txPk:sum(packetBytes) 	1419392880
attr interpolationmode  none
attr source  txPk
attr title  "packets transmitted, sum(packetBytes)"
scalar University.CCTV.eth[0].mac 	droppedPkNotForUs:count 	0
attr interpolationmode  none
attr source  dropPkNotForUs
attr title  "packets dropped/not for us, count"
scalar University.CCTV.eth[0].mac 	droppedPkNotForUs:sum(packetBytes) 	0
attr interpolationmode  none
attr source  dropPkNotForUs
attr title  "packets dropped/not for us, sum(packetBytes)"
scalar University.CCTV.eth[0].mac 	passedUpPk:count 	46
attr interpolationmode  none
attr source  packetSentToUpper
attr title  "packets passed to higher layer, count"
scalar University.CCTV.eth[0].mac 	passedUpPk:sum(packetBytes) 	2944
attr interpolationmode  none
attr source  packetSentToUpper
attr title  "packets passed to higher layer, sum(packetBytes)"
scalar University.CCTV.eth[0].mac 	droppedPkBitError:count 	0
attr interpolationmode  none
attr source  dropPkBitError
attr title  "packets dropped/bit error, count"
scalar University.CCTV.eth[0].mac 	droppedPkBitError:sum(packetBytes) 	0
attr interpolationmode  none
attr source  dropPkBitError
attr title  "packets dropped/bit error, sum(packetBytes)"
scalar University.CCTV.eth[0].mac 	droppedPkIfaceDown:count 	0
attr interpolationmode  none
attr source  dropPkIfaceDown
attr title  "packets dropped/interface down, count"
scalar University.CCTV.eth[0].mac 	droppedPkIfaceDown:sum(packetBytes) 	0
attr interpolationmode  none
attr source  dropPkIfaceDown
attr title  "packets dropped/interface down, sum(packetBytes)"
scalar University.CCTV.eth[0].mac 	rxPkOk:count 	46
attr interpolationmode  none
attr source  rxPkOk
attr title  "packets received OK, count"
scalar University.CCTV.eth[0].mac 	rxPkOk:sum(packetBytes) 	2944
attr interpolationmode  none
attr source  rxPkOk
attr title  "packets received OK, sum(packetBytes)"
scalar University.CCTV.eth[0].encap 	pauseSent:count 	0
attr title  "pause sent, count"
scalar University.CCTV.eth[0].encap 	pauseSent:sum 	0
attr title  "pause sent, sum"
scalar University.CCTV.eth[0].encap 	decapPk:count 	46
attr interpolationmode  none
attr source  decapPk
attr title  "packets decapsulated, count"
scalar University.CCTV.eth[0].encap 	decapPk:sum(packetBytes) 	1288
attr interpolationmode  none
attr source  decapPk
attr title  "packets decapsulated, sum(packetBytes)"
scalar University.CCTV.eth[0].encap 	encapPk:count 	945045
attr interpolationmode  none
attr source  encapPk
attr title  "packets encapsulated, count"
scalar University.CCTV.eth[0].encap 	encapPk:sum(packetBytes) 	1402381260
attr interpolationmode  none
attr source  encapPk
attr title  "packets encapsulated, sum(packetBytes)"
scalar University.CCTV.udpApp[0] 	reqStreamBytes:count 	1
attr interpolationmode  none
attr title  "requested stream bytes, count"
scalar University.CCTV.udpApp[0] 	reqStreamBytes:sum 	1433600000
attr interpolationmode  none
attr title  "requested stream bytes, sum"
scalar University.CCTV.udpApp[0] 	sentPk:count 	135000
attr interpolationmode  none
attr source  sentPk
attr title  "packets sent, count"
scalar University.CCTV.udpApp[0] 	sentPk:sum(packetBytes) 	1382400000
attr interpolationmode  none
attr source  sentPk
attr title  "packets sent, sum(packetBytes)"
scalar University.CCTV.udp 	droppedPkBadChecksum:count 	0
attr interpolationmode  none
attr title  "packets dropped (checksum error), count"
scalar University.CCTV.udp 	droppedPkWrongPort:count 	0
attr interpolationmode  none
attr title  "packets dropped (wrong port), count"
scalar University.CCTV.udp 	passedUpPk:count 	1
attr interpolationmode  none
attr title  "packets passed up, count"
scalar University.CCTV.udp 	sentPk:count 	135000
attr interpolationmode  none
attr source  sentPk
attr title  "packets sent, count"
scalar University.CCTV.udp 	sentPk:sum(packetBytes) 	1383480000
attr interpolationmode  none
attr source  sentPk
attr title  "packets sent, sum(packetBytes)"
scalar University.CCTV.udp 	rcvdPk:count 	1
attr interpolationmode  none
attr source  rcvdPk
attr title  "packets received, count"
scalar University.CCTV.udp 	rcvdPk:sum(packetBytes) 	8
attr interpolationmode  none
attr source  rcvdPk
attr title  "packets received, sum(packetBytes)"
scalar University.whttpStudents[0].networkLayer.arp 	initiatedARPResolution:count 	1
attr title  "ARP initiated resolutions, count"
scalar University.whttpStudents[0].networkLayer.arp 	sentReply:count 	42
attr title  "ARP replies sent, count"
scalar University.whttpStudents[0].networkLayer.arp 	sentReq:count 	1
attr title  "ARP request sent, count"
scalar University.whttpStudents[0].networkLayer.arp 	failedARPResolution:count 	0
attr title  "ARP failed resolutions, count"
scalar University.whttpStudents[0].networkLayer.arp 	completedARPResolution:count 	1547
attr title  "ARP completed resolutions, count"
scalar University.whttpStudents[0].lo0.lo 	rcvdPkFromHL:count 	0
attr interpolationmode  none
attr source  packetReceivedFromUpper
attr title  "packets received from higher layer, count"
scalar University.whttpStudents[0].lo0.lo 	rcvdPkFromHL:sum(packetBytes) 	0
attr interpolationmode  none
attr source  packetReceivedFromUpper
attr title  "packets received from higher layer, sum(packetBytes)"
scalar University.whttpStudents[0].lo0.lo 	passedUpPk:count 	0
attr interpolationmode  none
attr source  packetSentToUpper
attr title  "packets passed to higher layer, count"
scalar University.whttpStudents[0].lo0.lo 	passedUpPk:sum(packetBytes) 	0
attr interpolationmode  none
attr source  packetSentToUpper
attr title  "packets passed to higher layer, sum(packetBytes)"
scalar University.whttpStudents[0].lo0.lo 	droppedPkBitError:count 	0
attr interpolationmode  none
attr source  dropPkBitError
attr title  "packets dropped/bit error, count"
scalar University.whttpStudents[0].lo0.lo 	droppedPkBitError:sum(packetBytes) 	0
attr interpolationmode  none
attr source  dropPkBitError
attr title  "packets dropped/bit error, sum(packetBytes)"
scalar University.whttpStudents[0].wlan[0].agent 	dropConfirm:count 	0
attr title  "dropped confirms, count"
scalar University.whttpStudents[0].wlan[0].agent 	acceptConfirm:count 	24
attr title  "accepted confirms, count"
scalar University.whttpStudents[0].wlan[0].agent 	sentRequest:count 	24
attr title  "sent requests, count"
scalar University.whttpStudents[0].wlan[0].mgmt 	dropPkByQueue:count 	0
attr interpolationmode  none
attr source  dropPkByQueue
attr title  "packets dropped by queue, count"
scalar University.whttpStudents[0].wlan[0].mgmt 	dropPkByQueue:sum(packetBytes) 	0
attr interpolationmode  none
attr source  dropPkByQueue
attr title  "packets dropped by queue, sum(packetBytes)"
scalar University.whttpStudents[0].wlan[0].mgmt 	dataQueueLen:max 	13
attr interpolationmode  sample-hold
attr title  "data queue length, max"
scalar University.whttpStudents[0].wlan[0].mgmt 	dataQueueLen:timeavg 	0.0024789007036958
attr interpolationmode  sample-hold
attr title  "data queue length, timeavg"
scalar University.whttpStudents[0].wlan[0].mac 	"number of received packets" 	114341
scalar University.whttpStudents[0].wlan[0].mac 	"number of collisions" 	302716
scalar University.whttpStudents[0].wlan[0].mac 	"number of internal collisions" 	0
scalar University.whttpStudents[0].wlan[0].mac 	"number of retry for AC 0" 	8131
scalar University.whttpStudents[0].wlan[0].mac 	"sent and received bits" 	75160712
scalar University.whttpStudents[0].wlan[0].mac 	"sent packet within AC 0" 	114570
scalar University.whttpStudents[0].wlan[0].mac 	"sent in TXOP " 	0
scalar University.whttpStudents[0].wlan[0].mac 	"sentWithoutRetry AC 0" 	106573
scalar University.whttpStudents[0].wlan[0].mac 	"numGivenUp AC 0" 	0
scalar University.whttpStudents[0].wlan[0].mac 	"numDropped AC 0" 	0
scalar University.whttpStudents[0].wlan[0].mac 	rcvdPkFromHL:count 	114578
attr interpolationmode  none
attr source  packetReceivedFromUpper
attr title  "packets received from higher layer, count"
scalar University.whttpStudents[0].wlan[0].mac 	rcvdPkFromHL:sum(packetBytes) 	9395089
attr interpolationmode  none
attr source  packetReceivedFromUpper
attr title  "packets received from higher layer, sum(packetBytes)"
scalar University.whttpStudents[0].wlan[0].mac 	passedUpPk:count 	168663
attr interpolationmode  none
attr source  packetSentToUpper
attr title  "packets passed to higher layer, count"
scalar University.whttpStudents[0].wlan[0].mac 	passedUpPk:sum(packetBytes) 	179061283
attr interpolationmode  none
attr source  packetSentToUpper
attr title  "packets passed to higher layer, sum(packetBytes)"
scalar University.whttpStudents[0].wlan[0].mac 	rcvdPkFromLL:count 	15974427
attr interpolationmode  none
attr source  packetReceivedFromLower
attr title  "packets received from lower layer, count"
scalar University.whttpStudents[0].wlan[0].mac 	rcvdPkFromLL:sum(packetBytes) 	6886616501
attr interpolationmode  none
attr source  packetReceivedFromLower
attr title  "packets received from lower layer, sum(packetBytes)"
scalar University.whttpStudents[0].wlan[0].mac 	sentDownPk:count 	237050
attr interpolationmode  none
attr source  packetSentToLower
attr title  "packets sent to lower layer, count"
scalar University.whttpStudents[0].wlan[0].mac 	sentDownPk:sum(packetBytes) 	11662081
attr interpolationmode  none
attr source  packetSentToLower
attr title  "packets sent to lower layer, sum(packetBytes)"
scalar University.whttpStudents[0].wlan[0].radio 	lossRate:min 	0
attr interpolationmode  backward-sample-hold
attr title  "packet loss rate, min"
scalar University.whttpStudents[0].wlan[0].radio 	lossRate:max 	0.2
attr interpolationmode  backward-sample-hold
attr title  "packet loss rate, max"
scalar University.whttpStudents[0].wlan[0].radio 	lossRate:timeavg 	0.017222326606127
attr interpolationmode  backward-sample-hold
attr title  "packet loss rate, timeavg"
statistic University.whttpStudents[0].wlan[0].radio 	channelNo:histogram
field count 1
field mean 0
field stddev -nan
field sum 0
field sqrsum 0
field min 0
field max 0
attr interpolationmode  sample-hold
attr title  "channel no, histogram"
bin	-INF	0
bin	-0.5	0
bin	-0.46666666666667	0
bin	-0.43333333333333	0
bin	-0.4	0
bin	-0.36666666666667	0
bin	-0.33333333333333	0
bin	-0.3	0
bin	-0.26666666666667	0
bin	-0.23333333333333	0
bin	-0.2	0
bin	-0.16666666666667	0
bin	-0.13333333333333	0
bin	-0.1	0
bin	-0.066666666666667	0
bin	-0.033333333333333	0
bin	0	1
bin	0.033333333333333	0
bin	0.066666666666667	0
bin	0.1	0
bin	0.13333333333333	0
bin	0.16666666666667	0
bin	0.2	0
bin	0.23333333333333	0
bin	0.26666666666667	0
bin	0.3	0
bin	0.33333333333333	0
bin	0.36666666666667	0
bin	0.4	0
bin	0.43333333333333	0
bin	0.46666666666667	0
bin	0.5	0
scalar University.whttpStudents[0].wlan[0].radio 	radioState:count 	32433682
attr interpolationmode  sample-hold
attr title  "radio state (enum), count"
scalar University.whttpStudents[0].wlan[0].radio 	bitrate:min 	54000000
attr interpolationmode  sample-hold
attr title  "tx bitrate, min"
attr unit  bps
scalar University.whttpStudents[0].wlan[0].radio 	bitrate:max 	54000000
attr interpolationmode  sample-hold
attr title  "tx bitrate, max"
attr unit  bps
scalar University.whttpStudents[0].wlan[0].radio 	bitrate:timeavg 	54000000
attr interpolationmode  sample-hold
attr title  "tx bitrate, timeavg"
attr unit  bps
scalar University.whttpStudents[0].tcpApp[0] 	numActiveSessions:max 	1
attr interpolationmode  sample-hold
attr source  sum(connect)
attr title  "number of active sessions, max"
scalar University.whttpStudents[0].tcpApp[0] 	numActiveSessions:timeavg 	0.57086172956693
attr interpolationmode  sample-hold
attr source  sum(connect)
attr title  "number of active sessions, timeavg"
scalar University.whttpStudents[0].tcpApp[0] 	numSessions:last 	164
attr source  sum(connect+1)/2
attr title  "total number of sessions, last"
scalar University.whttpStudents[0].tcpApp[0] 	sentPk:count 	164
attr interpolationmode  none
attr source  sentPk
attr title  "packets sent, count"
scalar University.whttpStudents[0].tcpApp[0] 	sentPk:sum(packetBytes) 	164
attr interpolationmode  none
attr source  sentPk
attr title  "packets sent, sum(packetBytes)"
scalar University.whttpStudents[0].tcpApp[0] 	rcvdPk:count 	163
attr interpolationmode  none
attr source  rcvdPk
attr title  "packets received, count"
scalar University.whttpStudents[0].tcpApp[0] 	rcvdPk:sum(packetBytes) 	150283174
attr interpolationmode  none
attr source  rcvdPk
attr title  "packets received, sum(packetBytes)"
statistic University.whttpStudents[0].tcpApp[0] 	endToEndDelay:histogram
field count 163
field mean 18.064522537576
field stddev 21.277462611852
field sum 2944.517173625
field sqrsum 126533.62410743
field min 0.614529704575
field max 107.01119876784
attr interpolationmode  none
attr source  messageAge(rcvdPk)
attr title  "end-to-end delay, histogram"
attr unit  s
bin	-INF	0
bin	-52.583804827057	0
bin	-45.490693556173	0
bin	-38.397582285288	0
bin	-31.304471014404	0
bin	-24.21135974352	0
bin	-17.118248472636	0
bin	-10.025137201751	0
bin	-2.9320259308671	48
bin	4.1610853400171	36
bin	11.254196610901	31
bin	18.347307881786	9
bin	25.44041915267	9
bin	32.533530423554	5
bin	39.626641694438	9
bin	46.719752965323	2
bin	53.812864236207	3
bin	60.905975507091	5
bin	67.999086777976	1
bin	75.09219804886	1
bin	82.185309319744	1
bin	89.278420590628	1
bin	96.371531861513	1
bin	103.4646431324	1
bin	110.55775440328	0
bin	117.65086567417	0
bin	124.74397694505	0
bin	131.83708821593	0
bin	138.93019948682	0
bin	146.0233107577	0
bin	153.11642202859	0
bin	160.20953329947	0
scalar University.whttpStudents[1].networkLayer.arp 	initiatedARPResolution:count 	1
attr title  "ARP initiated resolutions, count"
scalar University.whttpStudents[1].networkLayer.arp 	sentReply:count 	43
attr title  "ARP replies sent, count"
scalar University.whttpStudents[1].networkLayer.arp 	sentReq:count 	1
attr title  "ARP request sent, count"
scalar University.whttpStudents[1].networkLayer.arp 	failedARPResolution:count 	0
attr title  "ARP failed resolutions, count"
scalar University.whttpStudents[1].networkLayer.arp 	completedARPResolution:count 	1562
attr title  "ARP completed resolutions, count"
scalar University.whttpStudents[1].lo0.lo 	rcvdPkFromHL:count 	0
attr interpolationmode  none
attr source  packetReceivedFromUpper
attr title  "packets received from higher layer, count"
scalar University.whttpStudents[1].lo0.lo 	rcvdPkFromHL:sum(packetBytes) 	0
attr interpolationmode  none
attr source  packetReceivedFromUpper
attr title  "packets received from higher layer, sum(packetBytes)"
scalar University.whttpStudents[1].lo0.lo 	passedUpPk:count 	0
attr interpolationmode  none
attr source  packetSentToUpper
attr title  "packets passed to higher layer, count"
scalar University.whttpStudents[1].lo0.lo 	passedUpPk:sum(packetBytes) 	0
attr interpolationmode  none
attr source  packetSentToUpper
attr title  "packets passed to higher layer, sum(packetBytes)"
scalar University.whttpStudents[1].lo0.lo 	droppedPkBitError:count 	0
attr interpolationmode  none
attr source  dropPkBitError
attr title  "packets dropped/bit error, count"
scalar University.whttpStudents[1].lo0.lo 	droppedPkBitError:sum(packetBytes) 	0
attr interpolationmode  none
attr source  dropPkBitError
attr title  "packets dropped/bit error, sum(packetBytes)"
scalar University.whttpStudents[1].wlan[0].agent 	dropConfirm:count 	0
attr title  "dropped confirms, count"
scalar University.whttpStudents[1].wlan[0].agent 	acceptConfirm:count 	3
attr title  "accepted confirms, count"
scalar University.whttpStudents[1].wlan[0].agent 	sentRequest:count 	3
attr title  "sent requests, count"
scalar University.whttpStudents[1].wlan[0].mgmt 	dropPkByQueue:count 	0
attr interpolationmode  none
attr source  dropPkByQueue
attr title  "packets dropped by queue, count"
scalar University.whttpStudents[1].wlan[0].mgmt 	dropPkByQueue:sum(packetBytes) 	0
attr interpolationmode  none
attr source  dropPkByQueue
attr title  "packets dropped by queue, sum(packetBytes)"
scalar University.whttpStudents[1].wlan[0].mgmt 	dataQueueLen:max 	12
attr interpolationmode  sample-hold
attr title  "data queue length, max"
scalar University.whttpStudents[1].wlan[0].mgmt 	dataQueueLen:timeavg 	0.0025789818006589
attr interpolationmode  sample-hold
attr title  "data queue length, timeavg"
scalar University.whttpStudents[1].wlan[0].mac 	"number of received packets" 	111147
scalar University.whttpStudents[1].wlan[0].mac 	"number of collisions" 	302199
scalar University.whttpStudents[1].wlan[0].mac 	"number of internal collisions" 	0
scalar University.whttpStudents[1].wlan[0].mac 	"number of retry for AC 0" 	8244
scalar University.whttpStudents[1].wlan[0].mac 	"sent and received bits" 	73095648
scalar University.whttpStudents[1].wlan[0].mac 	"sent packet within AC 0" 	111411
scalar University.whttpStudents[1].wlan[0].mac 	"sent in TXOP " 	0
scalar University.whttpStudents[1].wlan[0].mac 	"sentWithoutRetry AC 0" 	103324
scalar University.whttpStudents[1].wlan[0].mac 	"numGivenUp AC 0" 	0
scalar University.whttpStudents[1].wlan[0].mac 	"numDropped AC 0" 	0
scalar University.whttpStudents[1].wlan[0].mac 	rcvdPkFromHL:count 	111412
attr interpolationmode  none
attr source  packetReceivedFromUpper
attr title  "packets received from higher layer, count"
scalar University.whttpStudents[1].wlan[0].mac 	rcvdPkFromHL:sum(packetBytes) 	9136956
attr interpolationmode  none
attr source  packetReceivedFromUpper
attr title  "packets received from higher layer, sum(packetBytes)"
scalar University.whttpStudents[1].wlan[0].mac 	passedUpPk:count 	165886
attr interpolationmode  none
attr source  packetSentToUpper
attr title  "packets passed to higher layer, count"
scalar University.whttpStudents[1].wlan[0].mac 	passedUpPk:sum(packetBytes) 	174013839
attr interpolationmode  none
[...]
attr title  "packets sent, count"
scalar University.whostVideoConf.udpApp[0] 	sentPk:sum(packetBytes) 	189000000
attr interpolationmode  none
attr source  sentPk
attr title  "packets sent, sum(packetBytes)"
scalar University.whostVideoConf.udpApp[0] 	rcvdPk:count 	130976
attr interpolationmode  none
attr source  rcvdPk
attr title  "packets received, count"
scalar University.whostVideoConf.udpApp[0] 	rcvdPk:sum(packetBytes) 	183366400
attr interpolationmode  none
attr source  rcvdPk
attr title  "packets received, sum(packetBytes)"
statistic University.whostVideoConf.udpApp[0] 	rcvdPkLifetime:stats
field count 130976
field mean 0.047767301164513
field stddev 0.044402245708898
field sum 6256.3700373233
field sqrsum 557.07490732699
field min 0.016324214137
field max 1.034394462473
attr interpolationmode  none
attr source  messageAge(rcvdPk)
attr title  "received packet lifetime, stats"
attr unit  s
scalar University.whostVideoConf.udp 	droppedPkBadChecksum:count 	0
attr interpolationmode  none
attr title  "packets dropped (checksum error), count"
scalar University.whostVideoConf.udp 	droppedPkWrongPort:count 	0
attr interpolationmode  none
attr title  "packets dropped (wrong port), count"
scalar University.whostVideoConf.udp 	passedUpPk:count 	130976
attr interpolationmode  none
attr title  "packets passed up, count"
scalar University.whostVideoConf.udp 	sentPk:count 	135000
attr interpolationmode  none
attr source  sentPk
attr title  "packets sent, count"
scalar University.whostVideoConf.udp 	sentPk:sum(packetBytes) 	190080000
attr interpolationmode  none
attr source  sentPk
attr title  "packets sent, sum(packetBytes)"
scalar University.whostVideoConf.udp 	rcvdPk:count 	130976
attr interpolationmode  none
attr source  rcvdPk
attr title  "packets received, count"
scalar University.whostVideoConf.udp 	rcvdPk:sum(packetBytes) 	184414208
attr interpolationmode  none
attr source  rcvdPk
attr title  "packets received, sum(packetBytes)"
scalar University.whostFTP.networkLayer.arp 	initiatedARPResolution:count 	1
attr title  "ARP initiated resolutions, count"
scalar University.whostFTP.networkLayer.arp 	sentReply:count 	44
attr title  "ARP replies sent, count"
scalar University.whostFTP.networkLayer.arp 	sentReq:count 	2
attr title  "ARP request sent, count"
scalar University.whostFTP.networkLayer.arp 	failedARPResolution:count 	0
attr title  "ARP failed resolutions, count"
scalar University.whostFTP.networkLayer.arp 	completedARPResolution:count 	1548
attr title  "ARP completed resolutions, count"
scalar University.whostFTP.lo0.lo 	rcvdPkFromHL:count 	0
attr interpolationmode  none
attr source  packetReceivedFromUpper
attr title  "packets received from higher layer, count"
scalar University.whostFTP.lo0.lo 	rcvdPkFromHL:sum(packetBytes) 	0
attr interpolationmode  none
attr source  packetReceivedFromUpper
attr title  "packets received from higher layer, sum(packetBytes)"
scalar University.whostFTP.lo0.lo 	passedUpPk:count 	0
attr interpolationmode  none
attr source  packetSentToUpper
attr title  "packets passed to higher layer, count"
scalar University.whostFTP.lo0.lo 	passedUpPk:sum(packetBytes) 	0
attr interpolationmode  none
attr source  packetSentToUpper
attr title  "packets passed to higher layer, sum(packetBytes)"
scalar University.whostFTP.lo0.lo 	droppedPkBitError:count 	0
attr interpolationmode  none
attr source  dropPkBitError
attr title  "packets dropped/bit error, count"
scalar University.whostFTP.lo0.lo 	droppedPkBitError:sum(packetBytes) 	0
attr interpolationmode  none
attr source  dropPkBitError
attr title  "packets dropped/bit error, sum(packetBytes)"
scalar University.whostFTP.wlan[0].agent 	dropConfirm:count 	0
attr title  "dropped confirms, count"
scalar University.whostFTP.wlan[0].agent 	acceptConfirm:count 	24
attr title  "accepted confirms, count"
scalar University.whostFTP.wlan[0].agent 	sentRequest:count 	24
attr title  "sent requests, count"
scalar University.whostFTP.wlan[0].mgmt 	dropPkByQueue:count 	42734
attr interpolationmode  none
attr source  dropPkByQueue
attr title  "packets dropped by queue, count"
scalar University.whostFTP.wlan[0].mgmt 	dropPkByQueue:sum(packetBytes) 	65701440
attr interpolationmode  none
attr source  dropPkByQueue
attr title  "packets dropped by queue, sum(packetBytes)"
scalar University.whostFTP.wlan[0].mgmt 	dataQueueLen:max 	50
attr interpolationmode  sample-hold
attr title  "data queue length, max"
scalar University.whostFTP.wlan[0].mgmt 	dataQueueLen:timeavg 	0.85581477820381
attr interpolationmode  sample-hold
attr title  "data queue length, timeavg"
scalar University.whostFTP.wlan[0].mac 	"number of received packets" 	219157
scalar University.whostFTP.wlan[0].mac 	"number of collisions" 	257548
scalar University.whostFTP.wlan[0].mac 	"number of internal collisions" 	0
scalar University.whostFTP.wlan[0].mac 	"number of retry for AC 0" 	43805
scalar University.whostFTP.wlan[0].mac 	"sent and received bits" 	3051929264
scalar University.whostFTP.wlan[0].mac 	"sent packet within AC 0" 	249393
scalar University.whostFTP.wlan[0].mac 	"sent in TXOP " 	0
scalar University.whostFTP.wlan[0].mac 	"sentWithoutRetry AC 0" 	214326
scalar University.whostFTP.wlan[0].mac 	"numGivenUp AC 0" 	3
scalar University.whostFTP.wlan[0].mac 	"numDropped AC 0" 	0
scalar University.whostFTP.wlan[0].mac 	rcvdPkFromHL:count 	249404
attr interpolationmode  none
attr source  packetReceivedFromUpper
attr title  "packets received from higher layer, count"
scalar University.whostFTP.wlan[0].mac 	rcvdPkFromHL:sum(packetBytes) 	381495784
attr interpolationmode  none
attr source  packetReceivedFromUpper
attr title  "packets received from higher layer, sum(packetBytes)"
scalar University.whostFTP.wlan[0].mac 	passedUpPk:count 	273469
attr interpolationmode  none
attr source  packetSentToUpper
attr title  "packets passed to higher layer, count"
scalar University.whostFTP.wlan[0].mac 	passedUpPk:sum(packetBytes) 	22193202
attr interpolationmode  none
attr source  packetSentToUpper
attr title  "packets passed to higher layer, sum(packetBytes)"
scalar University.whostFTP.wlan[0].mac 	rcvdPkFromLL:count 	15699111
attr interpolationmode  none
attr source  packetReceivedFromLower
attr title  "packets received from lower layer, count"
scalar University.whostFTP.wlan[0].mac 	rcvdPkFromLL:sum(packetBytes) 	6468553327
attr interpolationmode  none
attr source  packetReceivedFromLower
attr title  "packets received from lower layer, sum(packetBytes)"
scalar University.whostFTP.wlan[0].mac 	sentDownPk:count 	512366
attr interpolationmode  none
attr source  packetSentToLower
attr title  "packets sent to lower layer, count"
scalar University.whostFTP.wlan[0].mac 	sentDownPk:sum(packetBytes) 	451809455
attr interpolationmode  none
attr source  packetSentToLower
attr title  "packets sent to lower layer, sum(packetBytes)"
scalar University.whostFTP.wlan[0].radio 	lossRate:min 	0
attr interpolationmode  backward-sample-hold
attr title  "packet loss rate, min"
scalar University.whostFTP.wlan[0].radio 	lossRate:max 	0.14
attr interpolationmode  backward-sample-hold
attr title  "packet loss rate, max"
scalar University.whostFTP.wlan[0].radio 	lossRate:timeavg 	0.014811919324378
attr interpolationmode  backward-sample-hold
attr title  "packet loss rate, timeavg"
statistic University.whostFTP.wlan[0].radio 	channelNo:histogram
field count 1
field mean 0
field stddev -nan
field sum 0
field sqrsum 0
field min 0
field max 0
attr interpolationmode  sample-hold
attr title  "channel no, histogram"
bin	-INF	0
bin	-0.5	0
bin	-0.46666666666667	0
bin	-0.43333333333333	0
bin	-0.4	0
bin	-0.36666666666667	0
bin	-0.33333333333333	0
bin	-0.3	0
bin	-0.26666666666667	0
bin	-0.23333333333333	0
bin	-0.2	0
bin	-0.16666666666667	0
bin	-0.13333333333333	0
bin	-0.1	0
bin	-0.066666666666667	0
bin	-0.033333333333333	0
bin	0	1
bin	0.033333333333333	0
bin	0.066666666666667	0
bin	0.1	0
bin	0.13333333333333	0
bin	0.16666666666667	0
bin	0.2	0
bin	0.23333333333333	0
bin	0.26666666666667	0
bin	0.3	0
bin	0.33333333333333	0
bin	0.36666666666667	0
bin	0.4	0
bin	0.43333333333333	0
bin	0.46666666666667	0
bin	0.5	0
scalar University.whostFTP.wlan[0].radio 	radioState:count 	32457694
attr interpolationmode  sample-hold
attr title  "radio state (enum), count"
scalar University.whostFTP.wlan[0].radio 	bitrate:min 	54000000
attr interpolationmode  sample-hold
attr title  "tx bitrate, min"
attr unit  bps
scalar University.whostFTP.wlan[0].radio 	bitrate:max 	54000000
attr interpolationmode  sample-hold
attr title  "tx bitrate, max"
attr unit  bps
scalar University.whostFTP.wlan[0].radio 	bitrate:timeavg 	54000000
attr interpolationmode  sample-hold
attr title  "tx bitrate, timeavg"
attr unit  bps
scalar University.whostFTP.tcpApp[0] 	numActiveSessions:max 	1
attr interpolationmode  sample-hold
attr source  sum(connect)
attr title  "number of active sessions, max"
scalar University.whostFTP.tcpApp[0] 	numActiveSessions:timeavg 	0.97114338291586
attr interpolationmode  sample-hold
attr source  sum(connect)
attr title  "number of active sessions, timeavg"
scalar University.whostFTP.tcpApp[0] 	numSessions:last 	319
attr source  sum(connect+1)/2
attr title  "total number of sessions, last"
scalar University.whostFTP.tcpApp[0] 	sentPk:count 	319
attr interpolationmode  none
attr source  sentPk
attr title  "packets sent, count"
scalar University.whostFTP.tcpApp[0] 	sentPk:sum(packetBytes) 	334495744
attr interpolationmode  none
attr source  sentPk
attr title  "packets sent, sum(packetBytes)"
scalar University.whostFTP.tcpApp[0] 	rcvdPk:count 	318
attr interpolationmode  none
attr source  rcvdPk
attr title  "packets received, count"
scalar University.whostFTP.tcpApp[0] 	rcvdPk:sum(packetBytes) 	318
attr interpolationmode  none
attr source  rcvdPk
attr title  "packets received, sum(packetBytes)"
statistic University.whostFTP.tcpApp[0] 	endToEndDelay:histogram
field count 318
field mean 16.08274402867
field stddev 7.2529995937981
field sum 5114.3126011171
field sqrsum 98928.28343149
field min 3.309257031503
field max 53.788261826508
attr interpolationmode  none
attr source  messageAge(rcvdPk)
attr title  "end-to-end delay, histogram"
attr unit  s
bin	-INF	0
bin	-20.699299263484	0
bin	-17.46685410689	0
bin	-14.234408950295	0
bin	-11.001963793701	0
bin	-7.7695186371069	0
bin	-4.5370734805127	0
bin	-1.3046283239184	0
bin	1.9278168326759	9
bin	5.1602619892701	22
bin	8.3927071458644	50
bin	11.625152302459	80
bin	14.857597459053	64
bin	18.090042615647	32
bin	21.322487772241	27
bin	24.554932928836	11
bin	27.78737808543	14
bin	31.019823242024	4
bin	34.252268398619	2
bin	37.484713555213	0
bin	40.717158711807	0
bin	43.949603868401	0
bin	47.182049024996	0
bin	50.41449418159	2
bin	53.646939338184	1
bin	56.879384494778	0
bin	60.111829651373	0
bin	63.344274807967	0
bin	66.576719964561	0
bin	69.809165121155	0
bin	73.04161027775	0
bin	76.274055434344	0
scalar University.accessPoint.relayUnit 	"number of received BPDUs from STP module" 	0
scalar University.accessPoint.relayUnit 	"number of received frames from network (including BPDUs)" 	8006952
scalar University.accessPoint.relayUnit 	"number of dropped frames (including BPDUs)" 	0
scalar University.accessPoint.relayUnit 	"number of delivered BPDUs to the STP module" 	0
scalar University.accessPoint.relayUnit 	"number of dispatched BPDU frames to the network" 	0
scalar University.accessPoint.relayUnit 	"number of dispatched non-BDPU frames to the network" 	8006952
scalar University.accessPoint.wlan[0].mgmt 	dropPkByQueue:count 	83189
attr interpolationmode  none
attr source  dropPkByQueue
attr title  "packets dropped by queue, count"
scalar University.accessPoint.wlan[0].mgmt 	dropPkByQueue:sum(packetBytes) 	80847421
attr interpolationmode  none
attr source  dropPkByQueue
attr title  "packets dropped by queue, sum(packetBytes)"
scalar University.accessPoint.wlan[0].mgmt 	dataQueueLen:max 	50
attr interpolationmode  sample-hold
attr title  "data queue length, max"
scalar University.accessPoint.wlan[0].mgmt 	dataQueueLen:timeavg 	12.266927966845
attr interpolationmode  sample-hold
attr title  "data queue length, timeavg"
scalar University.accessPoint.wlan[0].mac 	"number of received packets" 	3982525
scalar University.accessPoint.wlan[0].mac 	"number of collisions" 	18777
scalar University.accessPoint.wlan[0].mac 	"number of internal collisions" 	0
scalar University.accessPoint.wlan[0].mac 	"number of retry for AC 0" 	290658
scalar University.accessPoint.wlan[0].mac 	"sent and received bits" 	45606463800
scalar University.accessPoint.wlan[0].mac 	"sent packet within AC 0" 	3940622
scalar University.accessPoint.wlan[0].mac 	"sent in TXOP " 	0
scalar University.accessPoint.wlan[0].mac 	"sentWithoutRetry AC 0" 	3664239
scalar University.accessPoint.wlan[0].mac 	"numGivenUp AC 0" 	0
scalar University.accessPoint.wlan[0].mac 	"numDropped AC 0" 	0
scalar University.accessPoint.wlan[0].mac 	rcvdPkFromHL:count 	3996244
attr interpolationmode  none
attr source  packetReceivedFromUpper
attr title  "packets received from higher layer, count"
scalar University.accessPoint.wlan[0].mac 	rcvdPkFromHL:sum(packetBytes) 	5700807975
attr interpolationmode  none
attr source  packetReceivedFromUpper
attr title  "packets received from higher layer, sum(packetBytes)"
scalar University.accessPoint.wlan[0].mac 	passedUpPk:count 	3982599
attr interpolationmode  none
attr source  packetSentToUpper
attr title  "packets passed to higher layer, count"
scalar University.accessPoint.wlan[0].mac 	passedUpPk:sum(packetBytes) 	874970712
attr interpolationmode  none
attr source  packetSentToUpper
attr title  "packets passed to higher layer, sum(packetBytes)"
scalar University.accessPoint.wlan[0].mac 	rcvdPkFromLL:count 	7942051
attr interpolationmode  none
attr source  packetReceivedFromLower
attr title  "packets received from lower layer, count"
scalar University.accessPoint.wlan[0].mac 	rcvdPkFromLL:sum(packetBytes) 	935070995
attr interpolationmode  none
attr source  packetReceivedFromLower
attr title  "packets received from lower layer, sum(packetBytes)"
scalar University.accessPoint.wlan[0].mac 	sentDownPk:count 	8269427
attr interpolationmode  none
attr source  packetSentToLower
attr title  "packets sent to lower layer, count"
scalar University.accessPoint.wlan[0].mac 	sentDownPk:sum(packetBytes) 	6171248590
attr interpolationmode  none
attr source  packetSentToLower
attr title  "packets sent to lower layer, sum(packetBytes)"
scalar University.accessPoint.wlan[0].radio 	lossRate:min 	0
attr interpolationmode  backward-sample-hold
attr title  "packet loss rate, min"
scalar University.accessPoint.wlan[0].radio 	lossRate:max 	0.2
attr interpolationmode  backward-sample-hold
attr title  "packet loss rate, max"
scalar University.accessPoint.wlan[0].radio 	lossRate:timeavg 	0.0022332543289998
attr interpolationmode  backward-sample-hold
attr title  "packet loss rate, timeavg"
statistic University.accessPoint.wlan[0].radio 	channelNo:histogram
field count 1
field mean 0
field stddev -nan
field sum 0
field sqrsum 0
field min 0
field max 0
attr interpolationmode  sample-hold
attr title  "channel no, histogram"
bin	-INF	0
bin	-0.5	0
bin	-0.46666666666667	0
bin	-0.43333333333333	0
bin	-0.4	0
bin	-0.36666666666667	0
bin	-0.33333333333333	0
bin	-0.3	0
bin	-0.26666666666667	0
bin	-0.23333333333333	0
bin	-0.2	0
bin	-0.16666666666667	0
bin	-0.13333333333333	0
bin	-0.1	0
bin	-0.066666666666667	0
bin	-0.033333333333333	0
bin	0	1
bin	0.033333333333333	0
bin	0.066666666666667	0
bin	0.1	0
bin	0.13333333333333	0
bin	0.16666666666667	0
bin	0.2	0
bin	0.23333333333333	0
bin	0.26666666666667	0
bin	0.3	0
bin	0.33333333333333	0
bin	0.36666666666667	0
bin	0.4	0
bin	0.43333333333333	0
bin	0.46666666666667	0
bin	0.5	0
scalar University.accessPoint.wlan[0].radio 	radioState:count 	32622402
attr interpolationmode  sample-hold
attr title  "radio state (enum), count"
scalar University.accessPoint.wlan[0].radio 	bitrate:min 	54000000
attr interpolationmode  sample-hold
attr title  "tx bitrate, min"
attr unit  bps
scalar University.accessPoint.wlan[0].radio 	bitrate:max 	54000000
attr interpolationmode  sample-hold
attr title  "tx bitrate, max"
attr unit  bps
scalar University.accessPoint.wlan[0].radio 	bitrate:timeavg 	54000000
attr interpolationmode  sample-hold
attr title  "tx bitrate, timeavg"
attr unit  bps
scalar University.accessPoint.eth[0].mac 	"simulated time" 	5400.0001818542
scalar University.accessPoint.eth[0].mac 	full-duplex 	1
scalar University.accessPoint.eth[0].mac 	"frames/sec sent" 	737.42182701792
scalar University.accessPoint.eth[0].mac 	"frames/sec rcvd" 	745.34701193621
scalar University.accessPoint.eth[0].mac 	"bits/sec sent" 	1176369.0685319
scalar University.accessPoint.eth[0].mac 	"bits/sec rcvd" 	8418455.2735313
scalar University.accessPoint.eth[0].mac 	"rx channel idle (%)" 	91.533842517713
scalar University.accessPoint.eth[0].mac 	"rx channel utilization (%)" 	8.4661574822874
scalar University.accessPoint.eth[0].mac 	rxPkFromHL:count 	3982078
attr interpolationmode  none
attr source  rxPkFromHL
attr title  "packet bytes from higher layer, count"
scalar University.accessPoint.eth[0].mac 	rxPkFromHL:sum(packetBytes) 	794049148
attr interpolationmode  none
attr source  rxPkFromHL
attr title  "packet bytes from higher layer, sum(packetBytes)"
scalar University.accessPoint.eth[0].mac 	rxPausePkUnits:count 	0
attr interpolationmode  none
attr title  "pause units received, count"
scalar University.accessPoint.eth[0].mac 	rxPausePkUnits:sum 	0
attr interpolationmode  none
attr title  "pause units received, sum"
scalar University.accessPoint.eth[0].mac 	txPausePkUnits:count 	0
attr interpolationmode  none
attr title  "pause units sent, count"
scalar University.accessPoint.eth[0].mac 	txPausePkUnits:sum 	0
attr interpolationmode  none
attr title  "pause units sent, sum"
scalar University.accessPoint.eth[0].mac 	txPk:count 	3982078
attr interpolationmode  none
attr source  txPk
attr title  "packets transmitted, count"
scalar University.accessPoint.eth[0].mac 	txPk:sum(packetBytes) 	794049148
attr interpolationmode  none
attr source  txPk
attr title  "packets transmitted, sum(packetBytes)"
scalar University.accessPoint.eth[0].mac 	droppedPkNotForUs:count 	0
attr interpolationmode  none
attr source  dropPkNotForUs
attr title  "packets dropped/not for us, count"
scalar University.accessPoint.eth[0].mac 	droppedPkNotForUs:sum(packetBytes) 	0
attr interpolationmode  none
attr source  dropPkNotForUs
attr title  "packets dropped/not for us, sum(packetBytes)"
scalar University.accessPoint.eth[0].mac 	passedUpPk:count 	4024874
attr interpolationmode  none
attr source  packetSentToUpper
attr title  "packets passed to higher layer, count"
scalar University.accessPoint.eth[0].mac 	passedUpPk:sum(packetBytes) 	5682457501
attr interpolationmode  none
attr source  packetSentToUpper
attr title  "packets passed to higher layer, sum(packetBytes)"
scalar University.accessPoint.eth[0].mac 	droppedPkBitError:count 	0
attr interpolationmode  none
attr source  dropPkBitError
attr title  "packets dropped/bit error, count"
scalar University.accessPoint.eth[0].mac 	droppedPkBitError:sum(packetBytes) 	0
attr interpolationmode  none
attr source  dropPkBitError
attr title  "packets dropped/bit error, sum(packetBytes)"
scalar University.accessPoint.eth[0].mac 	droppedPkIfaceDown:count 	0
attr interpolationmode  none
attr source  dropPkIfaceDown
attr title  "packets dropped/interface down, count"
scalar University.accessPoint.eth[0].mac 	droppedPkIfaceDown:sum(packetBytes) 	0
attr interpolationmode  none
attr source  dropPkIfaceDown
attr title  "packets dropped/interface down, sum(packetBytes)"
scalar University.accessPoint.eth[0].mac 	rxPkOk:count 	4024874
attr interpolationmode  none
attr source  rxPkOk
attr title  "packets received OK, count"
scalar University.accessPoint.eth[0].mac 	rxPkOk:sum(packetBytes) 	5682457501
attr interpolationmode  none
attr source  rxPkOk
attr title  "packets received OK, sum(packetBytes)"
